/*---------------------------------------------------------------------------*\
| =========                 |                                                 |
| \\      /  F ield         | OpenFOAM: The Open Source CFD Toolbox           |
|  \\    /   O peration     | Version:  v2012                                 |
|   \\  /    A nd           | Website:  www.openfoam.com                      |
|    \\/     M anipulation  |                                                 |
\*---------------------------------------------------------------------------*/
Build  : _7bdb509494-20201222 OPENFOAM=2012
Arch   : "LSB;label=32;scalar=64"
Exec   : mychtMultiRegionSimpleFoam
Date   : Dec 12 2022
Time   : 13:07:14
Host   : LAPTOP-6UM34LHV
PID    : 2192
I/O    : uncollated
Case   : /mnt/e/OpenFOAM_run/mytest
nProcs : 1
trapFpe: Floating point exception trapping enabled (FOAM_SIGFPE).
fileModificationChecking : Monitoring run-time modified files using timeStampMaster (fileModificationSkew 5, maxFileModificationPolls 20)
allowSystemOperations : Allowing user-supplied system call operations

// * * * * * * * * * * * * * * * * * * * * * * * * * * * * * * * * * * * * * //
Create time

Create fluid mesh for region air for time = 0

Create solid mesh for region soil1 for time = 0

Create solid mesh for region soil2 for time = 0

Create solid mesh for region asphalt for time = 0

Create solid mesh for region concrete for time = 0

*** Reading fluid mesh thermophysical properties for region air

    Adding to thermoFluid

Selecting thermodynamics package 
{
    type            heRhoThermo;
    mixture         pureMixture;
    transport       const;
    thermo          hConst;
    equationOfState Boussinesq;
    specie          specie;
    energy          sensibleEnthalpy;
}

    Adding to rhoFluid

    Adding to UFluid

    Adding to phiFluid

    Adding to hRefFluid

    Adding to ghFluid

    Adding to ghfFluid

    Adding to turbulence

Selecting turbulence model type RAS
Selecting RAS turbulence model kEpsilon
RAS
{
    RASModel        kEpsilon;
    turbulence      on;
    printCoeffs     on;
    Cmu             0.09;
    C1              1.44;
    C2              1.92;
    C3              0;
    sigmak          1;
    sigmaEps        1.3;
}

    Adding to specHumFluid

    Adding to TLeafFluid

    Adding to GLeafFluid

    Adding to LADFluid

Selecting radiationModel fvDOM
Selecting absorptionEmissionModel multiBandZoneAbsorptionEmission
Selecting scatterModel none
Selecting sootModel none
fvDOM : Allocated 72 rays with average orientation:
Sun direction : (0 0.707107 -0.707107)

Sun ray ID : 36

	I0 : dAve : 	(0.00240112 0.0529998 0.0449291) : omega : 	0.0701489 : d : 	(0.0346543 0.706682 0.706682)
	I1 : dAve : 	(0.0140886 0.0499926 0.0462127) : omega : 	0.0701489 : d : 	(0.163675 0.673485 0.720852)
	I2 : dAve : 	(0.0225881 0.0423514 0.0502942) : omega : 	0.0701489 : d : 	(0.257503 0.589132 0.765909)
	I3 : dAve : 	(0.0256222 0.0321236 0.0560799) : omega : 	0.0701489 : d : 	(0.290997 0.476224 0.829778)
	I4 : dAve : 	(0.0223778 0.0220497 0.0620195) : omega : 	0.0701489 : d : 	(0.255181 0.365016 0.895347)
	I5 : dAve : 	(0.0137244 0.014829 0.0665215) : omega : 	0.0701489 : d : 	(0.159654 0.285306 0.945046)
	I6 : dAve : 	(0.00198055 0.0123963 0.0683797) : omega : 	0.0701489 : d : 	(0.0300115 0.258451 0.965558)
	I7 : dAve : 	(-0.00970694 0.0154035 0.067096) : omega : 	0.0701489 : d : 	(-0.0990092 0.291648 0.951388)
	I8 : dAve : 	(-0.0182064 0.0230447 0.0630146) : omega : 	0.0701489 : d : 	(-0.192837 0.376001 0.906332)
	I9 : dAve : 	(-0.0212405 0.0332726 0.0572289) : omega : 	0.0701489 : d : 	(-0.226331 0.488909 0.842462)
	I10 : dAve : 	(-0.0179961 0.0433465 0.0512893) : omega : 	0.0701489 : d : 	(-0.190516 0.600117 0.776894)
	I11 : dAve : 	(-0.00934271 0.0505671 0.0467872) : omega : 	0.0701489 : d : 	(-0.0949885 0.679827 0.727195)
	I12 : dAve : 	(0.00559716 0.182743 0.0455352) : omega : 	0.19165 : d : 	(0.0300115 0.965558 0.258451)
	I13 : dAve : 	(0.0731523 0.165361 0.0529548) : omega : 	0.19165 : d : 	(0.382503 0.874862 0.297165)
	I14 : dAve : 	(0.12228 0.121194 0.0765461) : omega : 	0.19165 : d : 	(0.638845 0.644405 0.420261)
	I15 : dAve : 	(0.139818 0.0620754 0.109988) : omega : 	0.19165 : d : 	(0.730351 0.335936 0.594755)
	I16 : dAve : 	(0.121065 0.003847 0.14432) : omega : 	0.19165 : d : 	(0.632503 0.0321102 0.773892)
	I17 : dAve : 	(0.071047 -0.0378893 0.170342) : omega : 	0.19165 : d : 	(0.371518 -0.185663 0.909672)
	I18 : dAve : 	(0.00316619 -0.0519504 0.181082) : omega : 	0.19165 : d : 	(0.0173272 -0.259031 0.965713)
	I19 : dAve : 	(-0.0643889 -0.0345686 0.173663) : omega : 	0.19165 : d : 	(-0.335164 -0.168336 0.926999)
	I20 : dAve : 	(-0.113517 0.00959873 0.150071) : omega : 	0.19165 : d : 	(-0.591506 0.0621217 0.803904)
	I21 : dAve : 	(-0.131054 0.0687169 0.11663) : omega : 	0.19165 : d : 	(-0.683013 0.37059 0.62941)
	I22 : dAve : 	(-0.112302 0.126945 0.0822978) : omega : 	0.19165 : d : 	(-0.585164 0.674416 0.450273)
	I23 : dAve : 	(-0.0622837 0.168682 0.0562755) : omega : 	0.19165 : d : 	(-0.324179 0.89219 0.314492)
	I24 : dAve : 	(0.00441152 0.247089 -0.0671675) : omega : 	0.261799 : d : 	(0.0173272 0.965713 -0.259031)
	I25 : dAve : 	(0.127834 0.215333 -0.053612) : omega : 	0.261799 : d : 	(0.498839 0.841821 -0.206147)
	I26 : dAve : 	(0.217591 0.13464 -0.0105107) : omega : 	0.261799 : d : 	(0.849009 0.52701 -0.0379951)
	I27 : dAve : 	(0.249631 0.0266311 0.0505874) : omega : 	0.261799 : d : 	(0.974009 0.105634 0.200368)
	I28 : dAve : 	(0.21537 -0.0797518 0.113311) : omega : 	0.261799 : d : 	(0.840346 -0.3094 0.445074)
	I29 : dAve : 	(0.123988 -0.156004 0.160854) : omega : 	0.261799 : d : 	(0.483834 -0.606884 0.630553)
	I30 : dAve : 	(-2.98416e-05 -0.181693 0.180476) : omega : 	0.261799 : d : 	(3.33067e-16 -0.707107 0.707107)
	I31 : dAve : 	(-0.123453 -0.149937 0.166921) : omega : 	0.261799 : d : 	(-0.481512 -0.583214 0.654222)
	I32 : dAve : 	(-0.213209 -0.0692434 0.123819) : omega : 	0.261799 : d : 	(-0.831682 -0.268403 0.486071)
	I33 : dAve : 	(-0.24525 0.0387651 0.0627214) : omega : 	0.261799 : d : 	(-0.956682 0.152973 0.247707)
	I34 : dAve : 	(-0.210989 0.145148 -2.36274e-06) : omega : 	0.261799 : d : 	(-0.823018 0.568007 0.00300141)
	I35 : dAve : 	(-0.119606 0.2214 -0.047545) : omega : 	0.261799 : d : 	(-0.466506 0.86549 -0.182478)
	I36 : dAve : 	(2.98416e-05 0.181693 -0.180476) : omega : 	0.261799 : d : 	(2.77556e-17 0.707107 -0.707107)
	I37 : dAve : 	(0.123453 0.149937 -0.166921) : omega : 	0.261799 : d : 	(0.481512 0.583214 -0.654222)
	I38 : dAve : 	(0.213209 0.0692434 -0.123819) : omega : 	0.261799 : d : 	(0.831682 0.268403 -0.486071)
	I39 : dAve : 	(0.24525 -0.0387651 -0.0627214) : omega : 	0.261799 : d : 	(0.956682 -0.152973 -0.247707)
	I40 : dAve : 	(0.210989 -0.145148 2.36274e-06) : omega : 	0.261799 : d : 	(0.823018 -0.568007 -0.00300141)
	I41 : dAve : 	(0.119606 -0.2214 0.047545) : omega : 	0.261799 : d : 	(0.466506 -0.86549 0.182478)
	I42 : dAve : 	(-0.00441152 -0.247089 0.0671675) : omega : 	0.261799 : d : 	(-0.0173272 -0.965713 0.259031)
	I43 : dAve : 	(-0.127834 -0.215333 0.053612) : omega : 	0.261799 : d : 	(-0.498839 -0.841821 0.206147)
	I44 : dAve : 	(-0.217591 -0.13464 0.0105107) : omega : 	0.261799 : d : 	(-0.849009 -0.52701 0.0379951)
	I45 : dAve : 	(-0.249631 -0.0266311 -0.0505874) : omega : 	0.261799 : d : 	(-0.974009 -0.105634 -0.200368)
	I46 : dAve : 	(-0.21537 0.0797518 -0.113311) : omega : 	0.261799 : d : 	(-0.840346 0.3094 -0.445074)
	I47 : dAve : 	(-0.123988 0.156004 -0.160854) : omega : 	0.261799 : d : 	(-0.483834 0.606884 -0.630553)
	I48 : dAve : 	(-0.00316619 0.0519504 -0.181082) : omega : 	0.19165 : d : 	(-0.0173272 0.259031 -0.965713)
	I49 : dAve : 	(0.0643889 0.0345686 -0.173663) : omega : 	0.19165 : d : 	(0.335164 0.168336 -0.926999)
	I50 : dAve : 	(0.113517 -0.00959873 -0.150071) : omega : 	0.19165 : d : 	(0.591506 -0.0621217 -0.803904)
	I51 : dAve : 	(0.131054 -0.0687169 -0.11663) : omega : 	0.19165 : d : 	(0.683013 -0.37059 -0.62941)
	I52 : dAve : 	(0.112302 -0.126945 -0.0822978) : omega : 	0.19165 : d : 	(0.585164 -0.674416 -0.450273)
	I53 : dAve : 	(0.0622837 -0.168682 -0.0562755) : omega : 	0.19165 : d : 	(0.324179 -0.89219 -0.314492)
	I54 : dAve : 	(-0.00559716 -0.182743 -0.0455352) : omega : 	0.19165 : d : 	(-0.0300115 -0.965558 -0.258451)
	I55 : dAve : 	(-0.0731523 -0.165361 -0.0529548) : omega : 	0.19165 : d : 	(-0.382503 -0.874862 -0.297165)
	I56 : dAve : 	(-0.12228 -0.121194 -0.0765461) : omega : 	0.19165 : d : 	(-0.638845 -0.644405 -0.420261)
	I57 : dAve : 	(-0.139818 -0.0620754 -0.109988) : omega : 	0.19165 : d : 	(-0.730351 -0.335936 -0.594755)
	I58 : dAve : 	(-0.121065 -0.003847 -0.14432) : omega : 	0.19165 : d : 	(-0.632503 -0.0321102 -0.773892)
	I59 : dAve : 	(-0.071047 0.0378893 -0.170342) : omega : 	0.19165 : d : 	(-0.371518 0.185663 -0.909672)
	I60 : dAve : 	(-0.00198055 -0.0123963 -0.0683797) : omega : 	0.0701489 : d : 	(-0.0300115 -0.258451 -0.965558)
	I61 : dAve : 	(0.00970694 -0.0154035 -0.067096) : omega : 	0.0701489 : d : 	(0.0990092 -0.291648 -0.951388)
	I62 : dAve : 	(0.0182064 -0.0230447 -0.0630146) : omega : 	0.0701489 : d : 	(0.192837 -0.376001 -0.906332)
	I63 : dAve : 	(0.0212405 -0.0332726 -0.0572289) : omega : 	0.0701489 : d : 	(0.226331 -0.488909 -0.842462)
	I64 : dAve : 	(0.0179961 -0.0433465 -0.0512893) : omega : 	0.0701489 : d : 	(0.190516 -0.600117 -0.776894)
	I65 : dAve : 	(0.00934271 -0.0505671 -0.0467872) : omega : 	0.0701489 : d : 	(0.0949885 -0.679827 -0.727195)
	I66 : dAve : 	(-0.00240112 -0.0529998 -0.0449291) : omega : 	0.0701489 : d : 	(-0.0346543 -0.706682 -0.706682)
	I67 : dAve : 	(-0.0140886 -0.0499926 -0.0462127) : omega : 	0.0701489 : d : 	(-0.163675 -0.673485 -0.720852)
	I68 : dAve : 	(-0.0225881 -0.0423514 -0.0502942) : omega : 	0.0701489 : d : 	(-0.257503 -0.589132 -0.765909)
	I69 : dAve : 	(-0.0256222 -0.0321236 -0.0560799) : omega : 	0.0701489 : d : 	(-0.290997 -0.476224 -0.829778)
	I70 : dAve : 	(-0.0223778 -0.0220497 -0.0620195) : omega : 	0.0701489 : d : 	(-0.255181 -0.365016 -0.895347)
	I71 : dAve : 	(-0.0137244 -0.014829 -0.0665215) : omega : 	0.0701489 : d : 	(-0.159654 -0.285306 -0.945046)
Total omega : 12.5664

    Adding MRF

No MRF models present

    Adding fvOptions

Creating finite volume options from "constant/fvOptions"

Selecting finite volume options type USource
    Source: USource
    - selecting cells using cellZone tree_cube_1
    - selected 528 cell(s) with volume 248.46
Selecting finite volume options type kSource
    Source: kSource
    - selecting cells using cellZone tree_cube_1
    - selected 528 cell(s) with volume 248.46
Selecting finite volume options type epsilonSource
    Source: epsilonSource
    - selecting cells using cellZone tree_cube_1
    - selected 528 cell(s) with volume 248.46
Selecting finite volume options type ESource
    Source: ESource
    - selecting cells using cellZone vegetation
    - selected 1228 cell(s) with volume 388.46
Selecting finite volume options type specHumSource
    Source: specHumSource
    - selecting cells using cellZone tree_cube_1
    - selected 528 cell(s) with volume 248.46
*** Reading solid mesh thermophysical properties for region soil1

    Adding to thermos

Selecting thermodynamics package 
{
    type            heSolidThermo;
    mixture         pureMixture;
    transport       constIso;
    thermo          hConst;
    equationOfState rhoConst;
    specie          specie;
    energy          sensibleEnthalpy;
}

    Adding to radiations

Selecting radiationModel none
    Adding fvOptions

*** Reading solid mesh thermophysical properties for region soil2

    Adding to thermos

Selecting thermodynamics package 
{
    type            heSolidThermo;
    mixture         pureMixture;
    transport       constIso;
    thermo          hConst;
    equationOfState rhoConst;
    specie          specie;
    energy          sensibleEnthalpy;
}

    Adding to radiations

Selecting radiationModel none
    Adding fvOptions

*** Reading solid mesh thermophysical properties for region asphalt

    Adding to thermos

Selecting thermodynamics package 
{
    type            heSolidThermo;
    mixture         pureMixture;
    transport       constIso;
    thermo          hConst;
    equationOfState rhoConst;
    specie          specie;
    energy          sensibleEnthalpy;
}

    Adding to radiations

Selecting radiationModel none
    Adding fvOptions

*** Reading solid mesh thermophysical properties for region concrete

    Adding to thermos

Selecting thermodynamics package 
{
    type            heSolidThermo;
    mixture         pureMixture;
    transport       constIso;
    thermo          hConst;
    equationOfState rhoConst;
    specie          specie;
    energy          sensibleEnthalpy;
}

    Adding to radiations

Selecting radiationModel none
    Adding fvOptions

Time = 1


Solving for fluid region air
mySource::addSup()
DILUPBiCGStab:  Solving for Ux, Initial residual = 1, Final residual = 0.000342467, No Iterations 1
DILUPBiCGStab:  Solving for Uy, Initial residual = 1, Final residual = 0.0109173, No Iterations 1
DILUPBiCGStab:  Solving for Uz, Initial residual = 1, Final residual = 0.00237289, No Iterations 1
ESource::addSup()
DILUPBiCGStab:  Solving for h, Initial residual = 1, Final residual = 0.00418723, No Iterations 1
Radiation solver iter: 0
Selecting boundary radiation Model: transparent
Selecting boundary radiation Model: transparent
Selecting boundary radiation Model: transparent
Selecting boundary radiation Model: transparent
Selecting boundary radiation Model: opaqueDiffusive
Selecting boundary radiation Model: opaqueDiffusive
Selecting boundary radiation Model: opaqueDiffusive
Selecting boundary radiation Model: opaqueDiffusive
GAMG:  Solving for ILambda_0_0, Initial residual = 1, Final residual = 2.37849e-16, No Iterations 1
GAMG:  Solving for ILambda_1_0, Initial residual = 1, Final residual = 2.18631e-16, No Iterations 1
GAMG:  Solving for ILambda_2_0, Initial residual = 1, Final residual = 2.16353e-16, No Iterations 1
GAMG:  Solving for ILambda_3_0, Initial residual = 1, Final residual = 1.89263e-16, No Iterations 1
GAMG:  Solving for ILambda_4_0, Initial residual = 1, Final residual = 1.82895e-16, No Iterations 1
GAMG:  Solving for ILambda_5_0, Initial residual = 1, Final residual = 1.7568e-16, No Iterations 1
GAMG:  Solving for ILambda_6_0, Initial residual = 1, Final residual = 1.85953e-16, No Iterations 1
GAMG:  Solving for ILambda_7_0, Initial residual = 1, Final residual = 0.000366779, No Iterations 1
GAMG:  Solving for ILambda_8_0, Initial residual = 1, Final residual = 0.00097329, No Iterations 1
GAMG:  Solving for ILambda_9_0, Initial residual = 1, Final residual = 0.00118916, No Iterations 1
GAMG:  Solving for ILambda_10_0, Initial residual = 1, Final residual = 0.000913053, No Iterations 1
GAMG:  Solving for ILambda_11_0, Initial residual = 1, Final residual = 0.000311298, No Iterations 1
GAMG:  Solving for ILambda_12_0, Initial residual = 1, Final residual = 2.38262e-16, No Iterations 1
GAMG:  Solving for ILambda_13_0, Initial residual = 1, Final residual = 2.01523e-16, No Iterations 1
GAMG:  Solving for ILambda_14_0, Initial residual = 1, Final residual = 1.88454e-16, No Iterations 1
GAMG:  Solving for ILambda_15_0, Initial residual = 1, Final residual = 1.75809e-16, No Iterations 1
GAMG:  Solving for ILambda_16_0, Initial residual = 1, Final residual = 1.77674e-16, No Iterations 1
GAMG:  Solving for ILambda_17_0, Initial residual = 1, Final residual = 0.000656649, No Iterations 1
GAMG:  Solving for ILambda_18_0, Initial residual = 1, Final residual = 0.00131482, No Iterations 1
GAMG:  Solving for ILambda_19_0, Initial residual = 1, Final residual = 0.00287787, No Iterations 1
GAMG:  Solving for ILambda_20_0, Initial residual = 1, Final residual = 0.00354447, No Iterations 1
GAMG:  Solving for ILambda_21_0, Initial residual = 1, Final residual = 0.0037225, No Iterations 1
GAMG:  Solving for ILambda_22_0, Initial residual = 1, Final residual = 0.0032356, No Iterations 1
GAMG:  Solving for ILambda_23_0, Initial residual = 1, Final residual = 0.00161804, No Iterations 1
GAMG:  Solving for ILambda_24_0, Initial residual = 1, Final residual = 0.00654621, No Iterations 1
GAMG:  Solving for ILambda_25_0, Initial residual = 1, Final residual = 0.00338013, No Iterations 1
GAMG:  Solving for ILambda_26_0, Initial residual = 1, Final residual = 8.66686e-05, No Iterations 1
GAMG:  Solving for ILambda_27_0, Initial residual = 1, Final residual = 1.96993e-16, No Iterations 1
GAMG:  Solving for ILambda_28_0, Initial residual = 1, Final residual = 0.00143766, No Iterations 1
GAMG:  Solving for ILambda_29_0, Initial residual = 1, Final residual = 0.00328769, No Iterations 1
GAMG:  Solving for ILambda_30_0, Initial residual = 1, Final residual = 0.00492585, No Iterations 1
GAMG:  Solving for ILambda_31_0, Initial residual = 1, Final residual = 0.00667393, No Iterations 1
GAMG:  Solving for ILambda_32_0, Initial residual = 1, Final residual = 0.00717496, No Iterations 1
GAMG:  Solving for ILambda_33_0, Initial residual = 1, Final residual = 0.00532043, No Iterations 1
GAMG:  Solving for ILambda_34_0, Initial residual = 1, Final residual = 0.00139035, No Iterations 1
GAMG:  Solving for ILambda_35_0, Initial residual = 1, Final residual = 0.00574492, No Iterations 1
GAMG:  Solving for ILambda_36_0, Initial residual = 1, Final residual = 0.015752, No Iterations 1
GAMG:  Solving for ILambda_37_0, Initial residual = 1, Final residual = 0.0127927, No Iterations 1
GAMG:  Solving for ILambda_38_0, Initial residual = 1, Final residual = 0.0111356, No Iterations 1
GAMG:  Solving for ILambda_39_0, Initial residual = 1, Final residual = 0.00497827, No Iterations 1
GAMG:  Solving for ILambda_40_0, Initial residual = 1, Final residual = 0.00138504, No Iterations 1
GAMG:  Solving for ILambda_41_0, Initial residual = 1, Final residual = 0.00427994, No Iterations 1
GAMG:  Solving for ILambda_42_0, Initial residual = 1, Final residual = 0.00641888, No Iterations 1
GAMG:  Solving for ILambda_43_0, Initial residual = 1, Final residual = 0.00551713, No Iterations 1
GAMG:  Solving for ILambda_44_0, Initial residual = 1, Final residual = 0.000487217, No Iterations 1
GAMG:  Solving for ILambda_45_0, Initial residual = 1, Final residual = 1.84873e-16, No Iterations 1
GAMG:  Solving for ILambda_46_0, Initial residual = 1, Final residual = 0.0038115, No Iterations 1
GAMG:  Solving for ILambda_47_0, Initial residual = 1, Final residual = 0.00802629, No Iterations 1
GAMG:  Solving for ILambda_48_0, Initial residual = 1, Final residual = 0.00452108, No Iterations 1
GAMG:  Solving for ILambda_49_0, Initial residual = 1, Final residual = 0.00884545, No Iterations 1
GAMG:  Solving for ILambda_50_0, Initial residual = 1, Final residual = 0.00975209, No Iterations 1
GAMG:  Solving for ILambda_51_0, Initial residual = 1, Final residual = 0.00900751, No Iterations 1
GAMG:  Solving for ILambda_52_0, Initial residual = 1, Final residual = 0.00711871, No Iterations 1
GAMG:  Solving for ILambda_53_0, Initial residual = 1, Final residual = 0.00371469, No Iterations 1
GAMG:  Solving for ILambda_54_0, Initial residual = 1, Final residual = 2.21205e-16, No Iterations 1
GAMG:  Solving for ILambda_55_0, Initial residual = 1, Final residual = 2.11859e-16, No Iterations 1
GAMG:  Solving for ILambda_56_0, Initial residual = 1, Final residual = 1.98027e-16, No Iterations 1
GAMG:  Solving for ILambda_57_0, Initial residual = 1, Final residual = 1.88078e-16, No Iterations 1
GAMG:  Solving for ILambda_58_0, Initial residual = 1, Final residual = 2.03293e-16, No Iterations 1
GAMG:  Solving for ILambda_59_0, Initial residual = 1, Final residual = 0.00222823, No Iterations 1
GAMG:  Solving for ILambda_60_0, Initial residual = 1, Final residual = 1.72922e-16, No Iterations 1
GAMG:  Solving for ILambda_61_0, Initial residual = 1, Final residual = 0.00146855, No Iterations 1
GAMG:  Solving for ILambda_62_0, Initial residual = 1, Final residual = 0.00321351, No Iterations 1
GAMG:  Solving for ILambda_63_0, Initial residual = 1, Final residual = 0.00381219, No Iterations 1
GAMG:  Solving for ILambda_64_0, Initial residual = 1, Final residual = 0.0029929, No Iterations 1
GAMG:  Solving for ILambda_65_0, Initial residual = 1, Final residual = 0.00111643, No Iterations 1
GAMG:  Solving for ILambda_66_0, Initial residual = 1, Final residual = 2.32499e-16, No Iterations 1
GAMG:  Solving for ILambda_67_0, Initial residual = 1, Final residual = 2.19167e-16, No Iterations 1
GAMG:  Solving for ILambda_68_0, Initial residual = 1, Final residual = 2.02888e-16, No Iterations 1
GAMG:  Solving for ILambda_69_0, Initial residual = 1, Final residual = 1.97645e-16, No Iterations 1
GAMG:  Solving for ILambda_70_0, Initial residual = 1, Final residual = 2.30354e-16, No Iterations 1
GAMG:  Solving for ILambda_71_0, Initial residual = 1, Final residual = 1.74187e-16, No Iterations 1
Radiation solver iter: 1
GAMG:  Solving for ILambda_0_0, Initial residual = 0.287256, Final residual = 1.24666e-16, No Iterations 1
GAMG:  Solving for ILambda_1_0, Initial residual = 0.282079, Final residual = 1.22707e-16, No Iterations 1
GAMG:  Solving for ILambda_2_0, Initial residual = 0.278174, Final residual = 1.12503e-16, No Iterations 1
GAMG:  Solving for ILambda_3_0, Initial residual = 0.279839, Final residual = 1.13289e-16, No Iterations 1
GAMG:  Solving for ILambda_4_0, Initial residual = 0.286599, Final residual = 1.21053e-16, No Iterations 1
GAMG:  Solving for ILambda_5_0, Initial residual = 0.296727, Final residual = 1.0628e-16, No Iterations 1
GAMG:  Solving for ILambda_6_0, Initial residual = 0.30688, Final residual = 1.11897e-16, No Iterations 1
GAMG:  Solving for ILambda_7_0, Initial residual = 0.299059, Final residual = 5.72238e-05, No Iterations 1
GAMG:  Solving for ILambda_8_0, Initial residual = 0.288264, Final residual = 0.000146348, No Iterations 1
GAMG:  Solving for ILambda_9_0, Initial residual = 0.281285, Final residual = 0.000176896, No Iterations 1
GAMG:  Solving for ILambda_10_0, Initial residual = 0.280049, Final residual = 0.000136581, No Iterations 1
GAMG:  Solving for ILambda_11_0, Initial residual = 0.284131, Final residual = 4.66499e-05, No Iterations 1
GAMG:  Solving for ILambda_12_0, Initial residual = 0.316272, Final residual = 1.44094e-16, No Iterations 1
GAMG:  Solving for ILambda_13_0, Initial residual = 0.294806, Final residual = 1.21106e-16, No Iterations 1
GAMG:  Solving for ILambda_14_0, Initial residual = 0.279384, Final residual = 1.06983e-16, No Iterations 1
GAMG:  Solving for ILambda_15_0, Initial residual = 0.280963, Final residual = 1.14776e-16, No Iterations 1
GAMG:  Solving for ILambda_16_0, Initial residual = 0.288851, Final residual = 1.10868e-16, No Iterations 1
GAMG:  Solving for ILambda_17_0, Initial residual = 0.289872, Final residual = 0.000109176, No Iterations 1
GAMG:  Solving for ILambda_18_0, Initial residual = 0.301464, Final residual = 0.000229105, No Iterations 1
GAMG:  Solving for ILambda_19_0, Initial residual = 0.292092, Final residual = 0.000442573, No Iterations 1
GAMG:  Solving for ILambda_20_0, Initial residual = 0.289203, Final residual = 0.000537684, No Iterations 1
GAMG:  Solving for ILambda_21_0, Initial residual = 0.279067, Final residual = 0.000592323, No Iterations 1
GAMG:  Solving for ILambda_22_0, Initial residual = 0.278105, Final residual = 0.000524572, No Iterations 1
GAMG:  Solving for ILambda_23_0, Initial residual = 0.295373, Final residual = 0.000282855, No Iterations 1
GAMG:  Solving for ILambda_24_0, Initial residual = 0.362081, Final residual = 0.00277556, No Iterations 1
GAMG:  Solving for ILambda_25_0, Initial residual = 0.350253, Final residual = 0.00159415, No Iterations 1
GAMG:  Solving for ILambda_26_0, Initial residual = 0.371542, Final residual = 5.3542e-05, No Iterations 1
GAMG:  Solving for ILambda_27_0, Initial residual = 0.325949, Final residual = 1.31709e-16, No Iterations 1
GAMG:  Solving for ILambda_28_0, Initial residual = 0.287609, Final residual = 0.000286881, No Iterations 1
GAMG:  Solving for ILambda_29_0, Initial residual = 0.275819, Final residual = 0.000541017, No Iterations 1
GAMG:  Solving for ILambda_30_0, Initial residual = 0.287649, Final residual = 0.000764499, No Iterations 1
GAMG:  Solving for ILambda_31_0, Initial residual = 0.275825, Final residual = 0.00101523, No Iterations 1
GAMG:  Solving for ILambda_32_0, Initial residual = 0.287398, Final residual = 0.00120517, No Iterations 1
GAMG:  Solving for ILambda_33_0, Initial residual = 0.314687, Final residual = 0.00102455, No Iterations 1
GAMG:  Solving for ILambda_34_0, Initial residual = 0.371717, Final residual = 0.000432507, No Iterations 1
GAMG:  Solving for ILambda_35_0, Initial residual = 0.355692, Final residual = 0.00261708, No Iterations 1
GAMG:  Solving for ILambda_36_0, Initial residual = 0.23732, Final residual = 0.00274414, No Iterations 1
GAMG:  Solving for ILambda_37_0, Initial residual = 0.311639, Final residual = 0.00348941, No Iterations 1
GAMG:  Solving for ILambda_38_0, Initial residual = 0.327568, Final residual = 0.00362704, No Iterations 1
GAMG:  Solving for ILambda_39_0, Initial residual = 0.367729, Final residual = 0.00227805, No Iterations 1
GAMG:  Solving for ILambda_40_0, Initial residual = 0.372084, Final residual = 0.000430508, No Iterations 1
GAMG:  Solving for ILambda_41_0, Initial residual = 0.304215, Final residual = 0.000937791, No Iterations 1
GAMG:  Solving for ILambda_42_0, Initial residual = 0.314306, Final residual = 0.00129055, No Iterations 1
GAMG:  Solving for ILambda_43_0, Initial residual = 0.299214, Final residual = 0.00123923, No Iterations 1
GAMG:  Solving for ILambda_44_0, Initial residual = 0.345302, Final residual = 0.000222196, No Iterations 1
GAMG:  Solving for ILambda_45_0, Initial residual = 0.379777, Final residual = 1.38128e-16, No Iterations 1
GAMG:  Solving for ILambda_46_0, Initial residual = 0.331342, Final residual = 0.00133329, No Iterations 1
GAMG:  Solving for ILambda_47_0, Initial residual = 0.311512, Final residual = 0.00222002, No Iterations 1
GAMG:  Solving for ILambda_48_0, Initial residual = 0.307569, Final residual = 0.000679336, No Iterations 1
GAMG:  Solving for ILambda_49_0, Initial residual = 0.30955, Final residual = 0.00159599, No Iterations 1
GAMG:  Solving for ILambda_50_0, Initial residual = 0.314239, Final residual = 0.00203313, No Iterations 1
GAMG:  Solving for ILambda_51_0, Initial residual = 0.315374, Final residual = 0.00251449, No Iterations 1
GAMG:  Solving for ILambda_52_0, Initial residual = 0.324241, Final residual = 0.00248746, No Iterations 1
GAMG:  Solving for ILambda_53_0, Initial residual = 0.345493, Final residual = 0.00149749, No Iterations 1
GAMG:  Solving for ILambda_54_0, Initial residual = 0.364603, Final residual = 1.63265e-16, No Iterations 1
GAMG:  Solving for ILambda_55_0, Initial residual = 0.344572, Final residual = 1.31324e-16, No Iterations 1
GAMG:  Solving for ILambda_56_0, Initial residual = 0.326291, Final residual = 1.17928e-16, No Iterations 1
GAMG:  Solving for ILambda_57_0, Initial residual = 0.317094, Final residual = 1.36878e-16, No Iterations 1
GAMG:  Solving for ILambda_58_0, Initial residual = 0.314577, Final residual = 1.37019e-16, No Iterations 1
GAMG:  Solving for ILambda_59_0, Initial residual = 0.309174, Final residual = 0.000401535, No Iterations 1
GAMG:  Solving for ILambda_60_0, Initial residual = 0.307185, Final residual = 1.06001e-16, No Iterations 1
GAMG:  Solving for ILambda_61_0, Initial residual = 0.308378, Final residual = 0.000209844, No Iterations 1
GAMG:  Solving for ILambda_62_0, Initial residual = 0.308229, Final residual = 0.000571565, No Iterations 1
GAMG:  Solving for ILambda_63_0, Initial residual = 0.308556, Final residual = 0.000771324, No Iterations 1
GAMG:  Solving for ILambda_64_0, Initial residual = 0.311697, Final residual = 0.000686752, No Iterations 1
GAMG:  Solving for ILambda_65_0, Initial residual = 0.316415, Final residual = 0.000269762, No Iterations 1
GAMG:  Solving for ILambda_66_0, Initial residual = 0.31872, Final residual = 1.5643e-16, No Iterations 1
GAMG:  Solving for ILambda_67_0, Initial residual = 0.315309, Final residual = 1.41718e-16, No Iterations 1
GAMG:  Solving for ILambda_68_0, Initial residual = 0.310712, Final residual = 1.3648e-16, No Iterations 1
GAMG:  Solving for ILambda_69_0, Initial residual = 0.308275, Final residual = 1.19114e-16, No Iterations 1
GAMG:  Solving for ILambda_70_0, Initial residual = 0.30787, Final residual = 1.2726e-16, No Iterations 1
GAMG:  Solving for ILambda_71_0, Initial residual = 0.308146, Final residual = 1.2074e-16, No Iterations 1
Radiation solver iter: 2
GAMG:  Solving for ILambda_0_0, Initial residual = 0.169299, Final residual = 1.15376e-16, No Iterations 1
GAMG:  Solving for ILambda_1_0, Initial residual = 0.162517, Final residual = 1.09091e-16, No Iterations 1
GAMG:  Solving for ILambda_2_0, Initial residual = 0.160427, Final residual = 1.04313e-16, No Iterations 1
GAMG:  Solving for ILambda_3_0, Initial residual = 0.16143, Final residual = 1.04408e-16, No Iterations 1
GAMG:  Solving for ILambda_4_0, Initial residual = 0.165796, Final residual = 1.14682e-16, No Iterations 1
GAMG:  Solving for ILambda_5_0, Initial residual = 0.174517, Final residual = 1.21744e-16, No Iterations 1
GAMG:  Solving for ILambda_6_0, Initial residual = 0.187418, Final residual = 1.22884e-16, No Iterations 1
GAMG:  Solving for ILambda_7_0, Initial residual = 0.177153, Final residual = 6.46234e-05, No Iterations 1
GAMG:  Solving for ILambda_8_0, Initial residual = 0.167055, Final residual = 0.000161407, No Iterations 1
GAMG:  Solving for ILambda_9_0, Initial residual = 0.16272, Final residual = 0.000193851, No Iterations 1
GAMG:  Solving for ILambda_10_0, Initial residual = 0.1617, Final residual = 0.000151693, No Iterations 1
GAMG:  Solving for ILambda_11_0, Initial residual = 0.164584, Final residual = 5.30827e-05, No Iterations 1
GAMG:  Solving for ILambda_12_0, Initial residual = 0.181388, Final residual = 1.36709e-16, No Iterations 1
GAMG:  Solving for ILambda_13_0, Initial residual = 0.166443, Final residual = 1.15935e-16, No Iterations 1
GAMG:  Solving for ILambda_14_0, Initial residual = 0.159955, Final residual = 9.93848e-17, No Iterations 1
GAMG:  Solving for ILambda_15_0, Initial residual = 0.16045, Final residual = 1.05747e-16, No Iterations 1
GAMG:  Solving for ILambda_16_0, Initial residual = 0.171376, Final residual = 1.06156e-16, No Iterations 1
GAMG:  Solving for ILambda_17_0, Initial residual = 0.168063, Final residual = 0.000110175, No Iterations 1
GAMG:  Solving for ILambda_18_0, Initial residual = 0.18299, Final residual = 0.000230983, No Iterations 1
GAMG:  Solving for ILambda_19_0, Initial residual = 0.170054, Final residual = 0.000516377, No Iterations 1
GAMG:  Solving for ILambda_20_0, Initial residual = 0.170512, Final residual = 0.000673019, No Iterations 1
GAMG:  Solving for ILambda_21_0, Initial residual = 0.159769, Final residual = 0.000650372, No Iterations 1
GAMG:  Solving for ILambda_22_0, Initial residual = 0.159504, Final residual = 0.000492137, No Iterations 1
GAMG:  Solving for ILambda_23_0, Initial residual = 0.166739, Final residual = 0.00023338, No Iterations 1
GAMG:  Solving for ILambda_24_0, Initial residual = 0.200552, Final residual = 0.000379389, No Iterations 1
GAMG:  Solving for ILambda_25_0, Initial residual = 0.187179, Final residual = 0.000359768, No Iterations 1
GAMG:  Solving for ILambda_26_0, Initial residual = 0.204817, Final residual = 2.51995e-05, No Iterations 1
GAMG:  Solving for ILambda_27_0, Initial residual = 0.181378, Final residual = 1.19788e-16, No Iterations 1
GAMG:  Solving for ILambda_28_0, Initial residual = 0.162893, Final residual = 0.000208087, No Iterations 1
GAMG:  Solving for ILambda_29_0, Initial residual = 0.158739, Final residual = 0.000557346, No Iterations 1
GAMG:  Solving for ILambda_30_0, Initial residual = 0.170663, Final residual = 0.000892848, No Iterations 1
GAMG:  Solving for ILambda_31_0, Initial residual = 0.158905, Final residual = 0.00113423, No Iterations 1
GAMG:  Solving for ILambda_32_0, Initial residual = 0.163096, Final residual = 0.00126959, No Iterations 1
GAMG:  Solving for ILambda_33_0, Initial residual = 0.175335, Final residual = 0.00088429, No Iterations 1
GAMG:  Solving for ILambda_34_0, Initial residual = 0.208267, Final residual = 0.000235401, No Iterations 1
GAMG:  Solving for ILambda_35_0, Initial residual = 0.189714, Final residual = 0.000776631, No Iterations 1
GAMG:  Solving for ILambda_36_0, Initial residual = 0.142522, Final residual = 0.00207834, No Iterations 1
GAMG:  Solving for ILambda_37_0, Initial residual = 0.177816, Final residual = 0.00172436, No Iterations 1
GAMG:  Solving for ILambda_38_0, Initial residual = 0.183527, Final residual = 0.00118888, No Iterations 1
GAMG:  Solving for ILambda_39_0, Initial residual = 0.195856, Final residual = 0.000298318, No Iterations 1
GAMG:  Solving for ILambda_40_0, Initial residual = 0.208472, Final residual = 0.000234813, No Iterations 1
GAMG:  Solving for ILambda_41_0, Initial residual = 0.171403, Final residual = 0.000560497, No Iterations 1
GAMG:  Solving for ILambda_42_0, Initial residual = 0.181183, Final residual = 0.00118644, No Iterations 1
GAMG:  Solving for ILambda_43_0, Initial residual = 0.169344, Final residual = 0.000788559, No Iterations 1
GAMG:  Solving for ILambda_44_0, Initial residual = 0.191604, Final residual = 5.64022e-05, No Iterations 1
GAMG:  Solving for ILambda_45_0, Initial residual = 0.201206, Final residual = 1.25136e-16, No Iterations 1
GAMG:  Solving for ILambda_46_0, Initial residual = 0.183502, Final residual = 0.000282267, No Iterations 1
GAMG:  Solving for ILambda_47_0, Initial residual = 0.177902, Final residual = 0.000851963, No Iterations 1
GAMG:  Solving for ILambda_48_0, Initial residual = 0.184363, Final residual = 0.000824621, No Iterations 1
GAMG:  Solving for ILambda_49_0, Initial residual = 0.180718, Final residual = 0.00164918, No Iterations 1
GAMG:  Solving for ILambda_50_0, Initial residual = 0.185358, Final residual = 0.00185512, No Iterations 1
GAMG:  Solving for ILambda_51_0, Initial residual = 0.179113, Final residual = 0.0010001, No Iterations 1
GAMG:  Solving for ILambda_52_0, Initial residual = 0.179858, Final residual = 0.000439313, No Iterations 1
GAMG:  Solving for ILambda_53_0, Initial residual = 0.186182, Final residual = 0.000193185, No Iterations 1
GAMG:  Solving for ILambda_54_0, Initial residual = 0.200429, Final residual = 1.43935e-16, No Iterations 1
GAMG:  Solving for ILambda_55_0, Initial residual = 0.185541, Final residual = 1.25747e-16, No Iterations 1
GAMG:  Solving for ILambda_56_0, Initial residual = 0.179716, Final residual = 1.11354e-16, No Iterations 1
GAMG:  Solving for ILambda_57_0, Initial residual = 0.179586, Final residual = 1.14576e-16, No Iterations 1
GAMG:  Solving for ILambda_58_0, Initial residual = 0.186182, Final residual = 1.38022e-16, No Iterations 1
GAMG:  Solving for ILambda_59_0, Initial residual = 0.179945, Final residual = 0.000396241, No Iterations 1
GAMG:  Solving for ILambda_60_0, Initial residual = 0.184557, Final residual = 1.11699e-16, No Iterations 1
GAMG:  Solving for ILambda_61_0, Initial residual = 0.181271, Final residual = 0.000252597, No Iterations 1
GAMG:  Solving for ILambda_62_0, Initial residual = 0.179178, Final residual = 0.000580304, No Iterations 1
GAMG:  Solving for ILambda_63_0, Initial residual = 0.178032, Final residual = 0.000611259, No Iterations 1
GAMG:  Solving for ILambda_64_0, Initial residual = 0.178635, Final residual = 0.000415818, No Iterations 1
GAMG:  Solving for ILambda_65_0, Initial residual = 0.181824, Final residual = 0.00014788, No Iterations 1
GAMG:  Solving for ILambda_66_0, Initial residual = 0.186185, Final residual = 1.34218e-16, No Iterations 1
GAMG:  Solving for ILambda_67_0, Initial residual = 0.180241, Final residual = 1.30551e-16, No Iterations 1
GAMG:  Solving for ILambda_68_0, Initial residual = 0.177723, Final residual = 1.21223e-16, No Iterations 1
GAMG:  Solving for ILambda_69_0, Initial residual = 0.17719, Final residual = 1.3e-16, No Iterations 1
GAMG:  Solving for ILambda_70_0, Initial residual = 0.178498, Final residual = 1.13414e-16, No Iterations 1
GAMG:  Solving for ILambda_71_0, Initial residual = 0.180345, Final residual = 1.07538e-16, No Iterations 1
Radiation solver iter: 3
GAMG:  Solving for ILambda_0_0, Initial residual = 0.129615, Final residual = 1.18557e-16, No Iterations 1
GAMG:  Solving for ILambda_1_0, Initial residual = 0.123888, Final residual = 1.11367e-16, No Iterations 1
GAMG:  Solving for ILambda_2_0, Initial residual = 0.122918, Final residual = 1.08769e-16, No Iterations 1
GAMG:  Solving for ILambda_3_0, Initial residual = 0.124613, Final residual = 1.11712e-16, No Iterations 1
GAMG:  Solving for ILambda_4_0, Initial residual = 0.128638, Final residual = 1.16991e-16, No Iterations 1
GAMG:  Solving for ILambda_5_0, Initial residual = 0.134998, Final residual = 1.20476e-16, No Iterations 1
GAMG:  Solving for ILambda_6_0, Initial residual = 0.144219, Final residual = 1.39908e-16, No Iterations 1
GAMG:  Solving for ILambda_7_0, Initial residual = 0.136721, Final residual = 3.08266e-05, No Iterations 1
GAMG:  Solving for ILambda_8_0, Initial residual = 0.129788, Final residual = 7.70703e-05, No Iterations 1
GAMG:  Solving for ILambda_9_0, Initial residual = 0.125525, Final residual = 9.28783e-05, No Iterations 1
GAMG:  Solving for ILambda_10_0, Initial residual = 0.124049, Final residual = 7.19603e-05, No Iterations 1
GAMG:  Solving for ILambda_11_0, Initial residual = 0.125459, Final residual = 2.54797e-05, No Iterations 1
GAMG:  Solving for ILambda_12_0, Initial residual = 0.137175, Final residual = 1.30809e-16, No Iterations 1
GAMG:  Solving for ILambda_13_0, Initial residual = 0.123046, Final residual = 1.1027e-16, No Iterations 1
GAMG:  Solving for ILambda_14_0, Initial residual = 0.118939, Final residual = 1.05178e-16, No Iterations 1
GAMG:  Solving for ILambda_15_0, Initial residual = 0.121489, Final residual = 1.06277e-16, No Iterations 1
GAMG:  Solving for ILambda_16_0, Initial residual = 0.131864, Final residual = 1.13192e-16, No Iterations 1
GAMG:  Solving for ILambda_17_0, Initial residual = 0.130682, Final residual = 4.9608e-05, No Iterations 1
GAMG:  Solving for ILambda_18_0, Initial residual = 0.141185, Final residual = 0.000112923, No Iterations 1
GAMG:  Solving for ILambda_19_0, Initial residual = 0.132148, Final residual = 0.000231137, No Iterations 1
GAMG:  Solving for ILambda_20_0, Initial residual = 0.131288, Final residual = 0.000300153, No Iterations 1
GAMG:  Solving for ILambda_21_0, Initial residual = 0.12151, Final residual = 0.000308784, No Iterations 1
GAMG:  Solving for ILambda_22_0, Initial residual = 0.119082, Final residual = 0.000302026, No Iterations 1
GAMG:  Solving for ILambda_23_0, Initial residual = 0.12405, Final residual = 0.000155517, No Iterations 1
GAMG:  Solving for ILambda_24_0, Initial residual = 0.151252, Final residual = 0.000732073, No Iterations 1
GAMG:  Solving for ILambda_25_0, Initial residual = 0.136483, Final residual = 0.000144863, No Iterations 1
GAMG:  Solving for ILambda_26_0, Initial residual = 0.148027, Final residual = 1.53281e-05, No Iterations 1
GAMG:  Solving for ILambda_27_0, Initial residual = 0.135209, Final residual = 1.20206e-16, No Iterations 1
GAMG:  Solving for ILambda_28_0, Initial residual = 0.122189, Final residual = 0.000127365, No Iterations 1
GAMG:  Solving for ILambda_29_0, Initial residual = 0.120887, Final residual = 0.000299085, No Iterations 1
GAMG:  Solving for ILambda_30_0, Initial residual = 0.130969, Final residual = 0.000421037, No Iterations 1
GAMG:  Solving for ILambda_31_0, Initial residual = 0.121188, Final residual = 0.000537213, No Iterations 1
GAMG:  Solving for ILambda_32_0, Initial residual = 0.122697, Final residual = 0.000634268, No Iterations 1
GAMG:  Solving for ILambda_33_0, Initial residual = 0.130918, Final residual = 0.000580157, No Iterations 1
GAMG:  Solving for ILambda_34_0, Initial residual = 0.150463, Final residual = 0.000197056, No Iterations 1
GAMG:  Solving for ILambda_35_0, Initial residual = 0.138809, Final residual = 0.00025324, No Iterations 1
GAMG:  Solving for ILambda_36_0, Initial residual = 0.105336, Final residual = 0.00147399, No Iterations 1
GAMG:  Solving for ILambda_37_0, Initial residual = 0.130614, Final residual = 0.00163839, No Iterations 1
GAMG:  Solving for ILambda_38_0, Initial residual = 0.134277, Final residual = 0.00142807, No Iterations 1
GAMG:  Solving for ILambda_39_0, Initial residual = 0.146017, Final residual = 0.000411715, No Iterations 1
GAMG:  Solving for ILambda_40_0, Initial residual = 0.150574, Final residual = 0.000196419, No Iterations 1
GAMG:  Solving for ILambda_41_0, Initial residual = 0.125671, Final residual = 0.000456443, No Iterations 1
GAMG:  Solving for ILambda_42_0, Initial residual = 0.137377, Final residual = 0.000729331, No Iterations 1
GAMG:  Solving for ILambda_43_0, Initial residual = 0.123694, Final residual = 0.000648064, No Iterations 1
GAMG:  Solving for ILambda_44_0, Initial residual = 0.139921, Final residual = 1.43892e-05, No Iterations 1
GAMG:  Solving for ILambda_45_0, Initial residual = 0.14975, Final residual = 1.2667e-16, No Iterations 1
GAMG:  Solving for ILambda_46_0, Initial residual = 0.134508, Final residual = 0.000429042, No Iterations 1
GAMG:  Solving for ILambda_47_0, Initial residual = 0.130842, Final residual = 0.000901342, No Iterations 1
GAMG:  Solving for ILambda_48_0, Initial residual = 0.146552, Final residual = 0.000386845, No Iterations 1
GAMG:  Solving for ILambda_49_0, Initial residual = 0.140061, Final residual = 0.00088336, No Iterations 1
GAMG:  Solving for ILambda_50_0, Initial residual = 0.138878, Final residual = 0.00117469, No Iterations 1
GAMG:  Solving for ILambda_51_0, Initial residual = 0.131456, Final residual = 0.00103697, No Iterations 1
GAMG:  Solving for ILambda_52_0, Initial residual = 0.131653, Final residual = 0.000778844, No Iterations 1
GAMG:  Solving for ILambda_53_0, Initial residual = 0.137982, Final residual = 0.000318969, No Iterations 1
GAMG:  Solving for ILambda_54_0, Initial residual = 0.151065, Final residual = 1.41586e-16, No Iterations 1
GAMG:  Solving for ILambda_55_0, Initial residual = 0.136574, Final residual = 1.19316e-16, No Iterations 1
GAMG:  Solving for ILambda_56_0, Initial residual = 0.131607, Final residual = 1.07729e-16, No Iterations 1
GAMG:  Solving for ILambda_57_0, Initial residual = 0.131718, Final residual = 1.13987e-16, No Iterations 1
GAMG:  Solving for ILambda_58_0, Initial residual = 0.139058, Final residual = 1.36899e-16, No Iterations 1
GAMG:  Solving for ILambda_59_0, Initial residual = 0.138477, Final residual = 0.00022514, No Iterations 1
GAMG:  Solving for ILambda_60_0, Initial residual = 0.14779, Final residual = 1.14165e-16, No Iterations 1
GAMG:  Solving for ILambda_61_0, Initial residual = 0.143332, Final residual = 0.000123707, No Iterations 1
GAMG:  Solving for ILambda_62_0, Initial residual = 0.137764, Final residual = 0.000338428, No Iterations 1
GAMG:  Solving for ILambda_63_0, Initial residual = 0.132576, Final residual = 0.000429416, No Iterations 1
GAMG:  Solving for ILambda_64_0, Initial residual = 0.130701, Final residual = 0.000334327, No Iterations 1
GAMG:  Solving for ILambda_65_0, Initial residual = 0.132472, Final residual = 0.000123413, No Iterations 1
GAMG:  Solving for ILambda_66_0, Initial residual = 0.136042, Final residual = 1.30774e-16, No Iterations 1
GAMG:  Solving for ILambda_67_0, Initial residual = 0.131611, Final residual = 1.31131e-16, No Iterations 1
GAMG:  Solving for ILambda_68_0, Initial residual = 0.130322, Final residual = 1.28591e-16, No Iterations 1
GAMG:  Solving for ILambda_69_0, Initial residual = 0.130959, Final residual = 1.29541e-16, No Iterations 1
GAMG:  Solving for ILambda_70_0, Initial residual = 0.136487, Final residual = 1.2034e-16, No Iterations 1
GAMG:  Solving for ILambda_71_0, Initial residual = 0.142022, Final residual = 1.10155e-16, No Iterations 1
Radiation solver iter: 4
GAMG:  Solving for ILambda_0_0, Initial residual = 0.104225, Final residual = 1.23645e-16, No Iterations 1
GAMG:  Solving for ILambda_1_0, Initial residual = 0.0995271, Final residual = 1.17024e-16, No Iterations 1
GAMG:  Solving for ILambda_2_0, Initial residual = 0.098234, Final residual = 1.1296e-16, No Iterations 1
GAMG:  Solving for ILambda_3_0, Initial residual = 0.0998949, Final residual = 1.14911e-16, No Iterations 1
GAMG:  Solving for ILambda_4_0, Initial residual = 0.104378, Final residual = 1.1524e-16, No Iterations 1
GAMG:  Solving for ILambda_5_0, Initial residual = 0.110838, Final residual = 1.23718e-16, No Iterations 1
GAMG:  Solving for ILambda_6_0, Initial residual = 0.119117, Final residual = 1.39016e-16, No Iterations 1
GAMG:  Solving for ILambda_7_0, Initial residual = 0.112476, Final residual = 2.90049e-05, No Iterations 1
GAMG:  Solving for ILambda_8_0, Initial residual = 0.105575, Final residual = 7.02654e-05, No Iterations 1
GAMG:  Solving for ILambda_9_0, Initial residual = 0.100971, Final residual = 7.85752e-05, No Iterations 1
GAMG:  Solving for ILambda_10_0, Initial residual = 0.0996678, Final residual = 5.76534e-05, No Iterations 1
GAMG:  Solving for ILambda_11_0, Initial residual = 0.101163, Final residual = 1.99648e-05, No Iterations 1
GAMG:  Solving for ILambda_12_0, Initial residual = 0.108123, Final residual = 1.39503e-16, No Iterations 1
GAMG:  Solving for ILambda_13_0, Initial residual = 0.100134, Final residual = 1.19081e-16, No Iterations 1
GAMG:  Solving for ILambda_14_0, Initial residual = 0.0960442, Final residual = 1.0621e-16, No Iterations 1
GAMG:  Solving for ILambda_15_0, Initial residual = 0.0967485, Final residual = 1.083e-16, No Iterations 1
GAMG:  Solving for ILambda_16_0, Initial residual = 0.106915, Final residual = 1.17983e-16, No Iterations 1
GAMG:  Solving for ILambda_17_0, Initial residual = 0.106202, Final residual = 4.63429e-05, No Iterations 1
GAMG:  Solving for ILambda_18_0, Initial residual = 0.11615, Final residual = 0.000108667, No Iterations 1
GAMG:  Solving for ILambda_19_0, Initial residual = 0.107652, Final residual = 0.000214327, No Iterations 1
GAMG:  Solving for ILambda_20_0, Initial residual = 0.106308, Final residual = 0.000255475, No Iterations 1
GAMG:  Solving for ILambda_21_0, Initial residual = 0.0962134, Final residual = 0.000230584, No Iterations 1
GAMG:  Solving for ILambda_22_0, Initial residual = 0.0957427, Final residual = 0.000167636, No Iterations 1
GAMG:  Solving for ILambda_23_0, Initial residual = 0.100465, Final residual = 8.41517e-05, No Iterations 1
GAMG:  Solving for ILambda_24_0, Initial residual = 0.116998, Final residual = 0.000696386, No Iterations 1
GAMG:  Solving for ILambda_25_0, Initial residual = 0.109693, Final residual = 0.000250532, No Iterations 1
GAMG:  Solving for ILambda_26_0, Initial residual = 0.117074, Final residual = 1.01257e-05, No Iterations 1
GAMG:  Solving for ILambda_27_0, Initial residual = 0.107139, Final residual = 1.18866e-16, No Iterations 1
GAMG:  Solving for ILambda_28_0, Initial residual = 0.098317, Final residual = 8.80383e-05, No Iterations 1
GAMG:  Solving for ILambda_29_0, Initial residual = 0.0952734, Final residual = 0.0002129, No Iterations 1
GAMG:  Solving for ILambda_30_0, Initial residual = 0.10607, Final residual = 0.0003228, No Iterations 1
GAMG:  Solving for ILambda_31_0, Initial residual = 0.0954643, Final residual = 0.000388488, No Iterations 1
GAMG:  Solving for ILambda_32_0, Initial residual = 0.0983548, Final residual = 0.00042651, No Iterations 1
GAMG:  Solving for ILambda_33_0, Initial residual = 0.104595, Final residual = 0.000276844, No Iterations 1
GAMG:  Solving for ILambda_34_0, Initial residual = 0.119915, Final residual = 0.000110685, No Iterations 1
GAMG:  Solving for ILambda_35_0, Initial residual = 0.110929, Final residual = 0.000341076, No Iterations 1
GAMG:  Solving for ILambda_36_0, Initial residual = 0.0895368, Final residual = 0.000738121, No Iterations 1
GAMG:  Solving for ILambda_37_0, Initial residual = 0.106098, Final residual = 0.00100184, No Iterations 1
GAMG:  Solving for ILambda_38_0, Initial residual = 0.107441, Final residual = 0.00100982, No Iterations 1
GAMG:  Solving for ILambda_39_0, Initial residual = 0.114362, Final residual = 0.000470085, No Iterations 1
GAMG:  Solving for ILambda_40_0, Initial residual = 0.12, Final residual = 0.00010996, No Iterations 1
GAMG:  Solving for ILambda_41_0, Initial residual = 0.10169, Final residual = 0.000265396, No Iterations 1
GAMG:  Solving for ILambda_42_0, Initial residual = 0.108183, Final residual = 0.000380038, No Iterations 1
GAMG:  Solving for ILambda_43_0, Initial residual = 0.100627, Final residual = 0.000353838, No Iterations 1
GAMG:  Solving for ILambda_44_0, Initial residual = 0.111486, Final residual = 1.96063e-05, No Iterations 1
GAMG:  Solving for ILambda_45_0, Initial residual = 0.116734, Final residual = 1.30286e-16, No Iterations 1
GAMG:  Solving for ILambda_46_0, Initial residual = 0.107511, Final residual = 0.000344302, No Iterations 1
GAMG:  Solving for ILambda_47_0, Initial residual = 0.105878, Final residual = 0.00057224, No Iterations 1
GAMG:  Solving for ILambda_48_0, Initial residual = 0.114836, Final residual = 0.000215683, No Iterations 1
GAMG:  Solving for ILambda_49_0, Initial residual = 0.112234, Final residual = 0.000490979, No Iterations 1
GAMG:  Solving for ILambda_50_0, Initial residual = 0.114037, Final residual = 0.000582867, No Iterations 1
GAMG:  Solving for ILambda_51_0, Initial residual = 0.107154, Final residual = 0.000648621, No Iterations 1
GAMG:  Solving for ILambda_52_0, Initial residual = 0.105004, Final residual = 0.000634399, No Iterations 1
GAMG:  Solving for ILambda_53_0, Initial residual = 0.109395, Final residual = 0.000322006, No Iterations 1
GAMG:  Solving for ILambda_54_0, Initial residual = 0.116815, Final residual = 1.41997e-16, No Iterations 1
GAMG:  Solving for ILambda_55_0, Initial residual = 0.109077, Final residual = 1.26258e-16, No Iterations 1
GAMG:  Solving for ILambda_56_0, Initial residual = 0.1052, Final residual = 1.17235e-16, No Iterations 1
GAMG:  Solving for ILambda_57_0, Initial residual = 0.106803, Final residual = 1.0976e-16, No Iterations 1
GAMG:  Solving for ILambda_58_0, Initial residual = 0.114974, Final residual = 1.39473e-16, No Iterations 1
GAMG:  Solving for ILambda_59_0, Initial residual = 0.111802, Final residual = 0.000117415, No Iterations 1
GAMG:  Solving for ILambda_60_0, Initial residual = 0.116916, Final residual = 1.30295e-16, No Iterations 1
GAMG:  Solving for ILambda_61_0, Initial residual = 0.11316, Final residual = 6.65708e-05, No Iterations 1
GAMG:  Solving for ILambda_62_0, Initial residual = 0.111305, Final residual = 0.000172216, No Iterations 1
GAMG:  Solving for ILambda_63_0, Initial residual = 0.109809, Final residual = 0.000202075, No Iterations 1
GAMG:  Solving for ILambda_64_0, Initial residual = 0.109627, Final residual = 0.000177179, No Iterations 1
GAMG:  Solving for ILambda_65_0, Initial residual = 0.111289, Final residual = 6.88094e-05, No Iterations 1
GAMG:  Solving for ILambda_66_0, Initial residual = 0.113969, Final residual = 1.37981e-16, No Iterations 1
GAMG:  Solving for ILambda_67_0, Initial residual = 0.109923, Final residual = 1.22916e-16, No Iterations 1
GAMG:  Solving for ILambda_68_0, Initial residual = 0.108438, Final residual = 1.25612e-16, No Iterations 1
GAMG:  Solving for ILambda_69_0, Initial residual = 0.109066, Final residual = 1.34215e-16, No Iterations 1
GAMG:  Solving for ILambda_70_0, Initial residual = 0.110811, Final residual = 1.31578e-16, No Iterations 1
GAMG:  Solving for ILambda_71_0, Initial residual = 0.112686, Final residual = 1.3082e-16, No Iterations 1
Radiation solver iter: 5
GAMG:  Solving for ILambda_0_0, Initial residual = 0.0886606, Final residual = 1.28403e-16, No Iterations 1
GAMG:  Solving for ILambda_1_0, Initial residual = 0.0854239, Final residual = 1.21e-16, No Iterations 1
GAMG:  Solving for ILambda_2_0, Initial residual = 0.084487, Final residual = 1.18355e-16, No Iterations 1
GAMG:  Solving for ILambda_3_0, Initial residual = 0.0852983, Final residual = 1.16877e-16, No Iterations 1
GAMG:  Solving for ILambda_4_0, Initial residual = 0.0883824, Final residual = 1.22073e-16, No Iterations 1
GAMG:  Solving for ILambda_5_0, Initial residual = 0.0943746, Final residual = 1.33295e-16, No Iterations 1
GAMG:  Solving for ILambda_6_0, Initial residual = 0.102214, Final residual = 1.55503e-16, No Iterations 1
GAMG:  Solving for ILambda_7_0, Initial residual = 0.0959796, Final residual = 2.61331e-05, No Iterations 1
GAMG:  Solving for ILambda_8_0, Initial residual = 0.0893162, Final residual = 6.17061e-05, No Iterations 1
GAMG:  Solving for ILambda_9_0, Initial residual = 0.0861968, Final residual = 7.26576e-05, No Iterations 1
GAMG:  Solving for ILambda_10_0, Initial residual = 0.0854779, Final residual = 5.45173e-05, No Iterations 1
GAMG:  Solving for ILambda_11_0, Initial residual = 0.0865701, Final residual = 1.90018e-05, No Iterations 1
GAMG:  Solving for ILambda_12_0, Initial residual = 0.0906149, Final residual = 1.45282e-16, No Iterations 1
GAMG:  Solving for ILambda_13_0, Initial residual = 0.0829287, Final residual = 1.17472e-16, No Iterations 1
GAMG:  Solving for ILambda_14_0, Initial residual = 0.0818052, Final residual = 1.07577e-16, No Iterations 1
GAMG:  Solving for ILambda_15_0, Initial residual = 0.0831797, Final residual = 1.1405e-16, No Iterations 1
GAMG:  Solving for ILambda_16_0, Initial residual = 0.0906897, Final residual = 1.26945e-16, No Iterations 1
GAMG:  Solving for ILambda_17_0, Initial residual = 0.0899369, Final residual = 4.20711e-05, No Iterations 1
GAMG:  Solving for ILambda_18_0, Initial residual = 0.0992114, Final residual = 9.87554e-05, No Iterations 1
GAMG:  Solving for ILambda_19_0, Initial residual = 0.091197, Final residual = 0.000191837, No Iterations 1
GAMG:  Solving for ILambda_20_0, Initial residual = 0.0902072, Final residual = 0.000231428, No Iterations 1
GAMG:  Solving for ILambda_21_0, Initial residual = 0.0831427, Final residual = 0.000208337, No Iterations 1
GAMG:  Solving for ILambda_22_0, Initial residual = 0.0818799, Final residual = 0.000164268, No Iterations 1
GAMG:  Solving for ILambda_23_0, Initial residual = 0.0831544, Final residual = 7.57078e-05, No Iterations 1
GAMG:  Solving for ILambda_24_0, Initial residual = 0.0980867, Final residual = 0.000534008, No Iterations 1
GAMG:  Solving for ILambda_25_0, Initial residual = 0.09101, Final residual = 0.000260221, No Iterations 1
GAMG:  Solving for ILambda_26_0, Initial residual = 0.0971824, Final residual = 7.043e-06, No Iterations 1
GAMG:  Solving for ILambda_27_0, Initial residual = 0.090098, Final residual = 1.25589e-16, No Iterations 1
GAMG:  Solving for ILambda_28_0, Initial residual = 0.0828177, Final residual = 8.64665e-05, No Iterations 1
GAMG:  Solving for ILambda_29_0, Initial residual = 0.0827934, Final residual = 0.000180439, No Iterations 1
GAMG:  Solving for ILambda_30_0, Initial residual = 0.089871, Final residual = 0.000307774, No Iterations 1
GAMG:  Solving for ILambda_31_0, Initial residual = 0.0829351, Final residual = 0.000373006, No Iterations 1
GAMG:  Solving for ILambda_32_0, Initial residual = 0.0833981, Final residual = 0.000392758, No Iterations 1
GAMG:  Solving for ILambda_33_0, Initial residual = 0.087463, Final residual = 0.000229932, No Iterations 1
GAMG:  Solving for ILambda_34_0, Initial residual = 0.0988714, Final residual = 7.22439e-05, No Iterations 1
GAMG:  Solving for ILambda_35_0, Initial residual = 0.0919102, Final residual = 0.000378725, No Iterations 1
GAMG:  Solving for ILambda_36_0, Initial residual = 0.073365, Final residual = 0.000547739, No Iterations 1
GAMG:  Solving for ILambda_37_0, Initial residual = 0.090685, Final residual = 0.000646948, No Iterations 1
GAMG:  Solving for ILambda_38_0, Initial residual = 0.0913061, Final residual = 0.000628049, No Iterations 1
GAMG:  Solving for ILambda_39_0, Initial residual = 0.0952387, Final residual = 0.000398469, No Iterations 1
GAMG:  Solving for ILambda_40_0, Initial residual = 0.0989378, Final residual = 7.16112e-05, No Iterations 1
GAMG:  Solving for ILambda_41_0, Initial residual = 0.085462, Final residual = 0.000161724, No Iterations 1
GAMG:  Solving for ILambda_42_0, Initial residual = 0.0907594, Final residual = 0.000329642, No Iterations 1
GAMG:  Solving for ILambda_43_0, Initial residual = 0.0844028, Final residual = 0.00022415, No Iterations 1
GAMG:  Solving for ILambda_44_0, Initial residual = 0.0929333, Final residual = 2.54947e-05, No Iterations 1
GAMG:  Solving for ILambda_45_0, Initial residual = 0.0976735, Final residual = 1.32029e-16, No Iterations 1
GAMG:  Solving for ILambda_46_0, Initial residual = 0.0907464, Final residual = 0.00022331, No Iterations 1
GAMG:  Solving for ILambda_47_0, Initial residual = 0.0909124, Final residual = 0.000317121, No Iterations 1
GAMG:  Solving for ILambda_48_0, Initial residual = 0.0998478, Final residual = 0.000207985, No Iterations 1
GAMG:  Solving for ILambda_49_0, Initial residual = 0.0956407, Final residual = 0.000398697, No Iterations 1
GAMG:  Solving for ILambda_50_0, Initial residual = 0.0950089, Final residual = 0.000426924, No Iterations 1
GAMG:  Solving for ILambda_51_0, Initial residual = 0.0912359, Final residual = 0.000351277, No Iterations 1
GAMG:  Solving for ILambda_52_0, Initial residual = 0.089055, Final residual = 0.00042793, No Iterations 1
GAMG:  Solving for ILambda_53_0, Initial residual = 0.0906715, Final residual = 0.000264093, No Iterations 1
GAMG:  Solving for ILambda_54_0, Initial residual = 0.0980007, Final residual = 1.48755e-16, No Iterations 1
GAMG:  Solving for ILambda_55_0, Initial residual = 0.0900585, Final residual = 1.27366e-16, No Iterations 1
GAMG:  Solving for ILambda_56_0, Initial residual = 0.0884225, Final residual = 1.14676e-16, No Iterations 1
GAMG:  Solving for ILambda_57_0, Initial residual = 0.0912567, Final residual = 1.16786e-16, No Iterations 1
GAMG:  Solving for ILambda_58_0, Initial residual = 0.0951546, Final residual = 1.37566e-16, No Iterations 1
GAMG:  Solving for ILambda_59_0, Initial residual = 0.0948014, Final residual = 8.90189e-05, No Iterations 1
GAMG:  Solving for ILambda_60_0, Initial residual = 0.100904, Final residual = 1.48009e-16, No Iterations 1
GAMG:  Solving for ILambda_61_0, Initial residual = 0.0980829, Final residual = 6.2462e-05, No Iterations 1
GAMG:  Solving for ILambda_62_0, Initial residual = 0.0942304, Final residual = 0.000127789, No Iterations 1
GAMG:  Solving for ILambda_63_0, Initial residual = 0.0909904, Final residual = 0.000152126, No Iterations 1
GAMG:  Solving for ILambda_64_0, Initial residual = 0.0915975, Final residual = 0.000114125, No Iterations 1
GAMG:  Solving for ILambda_65_0, Initial residual = 0.093, Final residual = 4.36996e-05, No Iterations 1
GAMG:  Solving for ILambda_66_0, Initial residual = 0.0946246, Final residual = 1.45089e-16, No Iterations 1
GAMG:  Solving for ILambda_67_0, Initial residual = 0.092259, Final residual = 1.38576e-16, No Iterations 1
GAMG:  Solving for ILambda_68_0, Initial residual = 0.0910997, Final residual = 1.31744e-16, No Iterations 1
GAMG:  Solving for ILambda_69_0, Initial residual = 0.0905653, Final residual = 1.22071e-16, No Iterations 1
GAMG:  Solving for ILambda_70_0, Initial residual = 0.0932252, Final residual = 1.45795e-16, No Iterations 1
GAMG:  Solving for ILambda_71_0, Initial residual = 0.0972673, Final residual = 1.33107e-16, No Iterations 1
Radiation solver iter: 6
GAMG:  Solving for ILambda_0_0, Initial residual = 0.0782451, Final residual = 1.37438e-16, No Iterations 1
GAMG:  Solving for ILambda_1_0, Initial residual = 0.0750973, Final residual = 1.29981e-16, No Iterations 1
GAMG:  Solving for ILambda_2_0, Initial residual = 0.0742884, Final residual = 1.23755e-16, No Iterations 1
GAMG:  Solving for ILambda_3_0, Initial residual = 0.0757871, Final residual = 1.27224e-16, No Iterations 1
GAMG:  Solving for ILambda_4_0, Initial residual = 0.0786412, Final residual = 1.32823e-16, No Iterations 1
GAMG:  Solving for ILambda_5_0, Initial residual = 0.0836742, Final residual = 1.46796e-16, No Iterations 1
GAMG:  Solving for ILambda_6_0, Initial residual = 0.0906023, Final residual = 1.6585e-16, No Iterations 1
GAMG:  Solving for ILambda_7_0, Initial residual = 0.0850094, Final residual = 2.19931e-05, No Iterations 1
GAMG:  Solving for ILambda_8_0, Initial residual = 0.0795739, Final residual = 5.12068e-05, No Iterations 1
GAMG:  Solving for ILambda_9_0, Initial residual = 0.0764682, Final residual = 5.81136e-05, No Iterations 1
GAMG:  Solving for ILambda_10_0, Initial residual = 0.0751728, Final residual = 4.39185e-05, No Iterations 1
GAMG:  Solving for ILambda_11_0, Initial residual = 0.0763548, Final residual = 1.58377e-05, No Iterations 1
GAMG:  Solving for ILambda_12_0, Initial residual = 0.0796522, Final residual = 1.45545e-16, No Iterations 1
GAMG:  Solving for ILambda_13_0, Initial residual = 0.07311, Final residual = 1.26867e-16, No Iterations 1
GAMG:  Solving for ILambda_14_0, Initial residual = 0.070947, Final residual = 1.09714e-16, No Iterations 1
GAMG:  Solving for ILambda_15_0, Initial residual = 0.0724666, Final residual = 1.18748e-16, No Iterations 1
GAMG:  Solving for ILambda_16_0, Initial residual = 0.0803679, Final residual = 1.38622e-16, No Iterations 1
GAMG:  Solving for ILambda_17_0, Initial residual = 0.0801971, Final residual = 3.58707e-05, No Iterations 1
GAMG:  Solving for ILambda_18_0, Initial residual = 0.0877699, Final residual = 8.26377e-05, No Iterations 1
GAMG:  Solving for ILambda_19_0, Initial residual = 0.0812633, Final residual = 0.00016162, No Iterations 1
GAMG:  Solving for ILambda_20_0, Initial residual = 0.0798704, Final residual = 0.000186347, No Iterations 1
GAMG:  Solving for ILambda_21_0, Initial residual = 0.0726399, Final residual = 0.000178276, No Iterations 1
GAMG:  Solving for ILambda_22_0, Initial residual = 0.0710231, Final residual = 0.000136612, No Iterations 1
GAMG:  Solving for ILambda_23_0, Initial residual = 0.0733153, Final residual = 7.34411e-05, No Iterations 1
GAMG:  Solving for ILambda_24_0, Initial residual = 0.0849365, Final residual = 0.000357263, No Iterations 1
GAMG:  Solving for ILambda_25_0, Initial residual = 0.0788423, Final residual = 0.000232846, No Iterations 1
GAMG:  Solving for ILambda_26_0, Initial residual = 0.0826111, Final residual = 5.06608e-06, No Iterations 1
GAMG:  Solving for ILambda_27_0, Initial residual = 0.0781937, Final residual = 1.37248e-16, No Iterations 1
GAMG:  Solving for ILambda_28_0, Initial residual = 0.0722264, Final residual = 7.20817e-05, No Iterations 1
GAMG:  Solving for ILambda_29_0, Initial residual = 0.0725008, Final residual = 0.000153097, No Iterations 1
GAMG:  Solving for ILambda_30_0, Initial residual = 0.0795573, Final residual = 0.000253657, No Iterations 1
GAMG:  Solving for ILambda_31_0, Initial residual = 0.0728522, Final residual = 0.000310532, No Iterations 1
GAMG:  Solving for ILambda_32_0, Initial residual = 0.0724769, Final residual = 0.000352533, No Iterations 1
GAMG:  Solving for ILambda_33_0, Initial residual = 0.0762383, Final residual = 0.00023666, No Iterations 1
GAMG:  Solving for ILambda_34_0, Initial residual = 0.0840097, Final residual = 5.71868e-05, No Iterations 1
GAMG:  Solving for ILambda_35_0, Initial residual = 0.079473, Final residual = 0.000362365, No Iterations 1
GAMG:  Solving for ILambda_36_0, Initial residual = 0.0649422, Final residual = 0.000471166, No Iterations 1
GAMG:  Solving for ILambda_37_0, Initial residual = 0.0778549, Final residual = 0.000519073, No Iterations 1
GAMG:  Solving for ILambda_38_0, Initial residual = 0.0794786, Final residual = 0.000502193, No Iterations 1
GAMG:  Solving for ILambda_39_0, Initial residual = 0.0817291, Final residual = 0.000285835, No Iterations 1
GAMG:  Solving for ILambda_40_0, Initial residual = 0.0840701, Final residual = 5.66002e-05, No Iterations 1
GAMG:  Solving for ILambda_41_0, Initial residual = 0.0740645, Final residual = 0.000155424, No Iterations 1
GAMG:  Solving for ILambda_42_0, Initial residual = 0.0797917, Final residual = 0.00031693, No Iterations 1
GAMG:  Solving for ILambda_43_0, Initial residual = 0.0732074, Final residual = 0.000205921, No Iterations 1
GAMG:  Solving for ILambda_44_0, Initial residual = 0.0793281, Final residual = 2.59774e-05, No Iterations 1
GAMG:  Solving for ILambda_45_0, Initial residual = 0.0841635, Final residual = 1.39857e-16, No Iterations 1
GAMG:  Solving for ILambda_46_0, Initial residual = 0.0791648, Final residual = 0.000131169, No Iterations 1
GAMG:  Solving for ILambda_47_0, Initial residual = 0.0780378, Final residual = 0.000255004, No Iterations 1
GAMG:  Solving for ILambda_48_0, Initial residual = 0.089227, Final residual = 0.000158174, No Iterations 1
GAMG:  Solving for ILambda_49_0, Initial residual = 0.0835323, Final residual = 0.000349242, No Iterations 1
GAMG:  Solving for ILambda_50_0, Initial residual = 0.0835854, Final residual = 0.000402704, No Iterations 1
GAMG:  Solving for ILambda_51_0, Initial residual = 0.0780938, Final residual = 0.000296559, No Iterations 1
GAMG:  Solving for ILambda_52_0, Initial residual = 0.0777941, Final residual = 0.000259548, No Iterations 1
GAMG:  Solving for ILambda_53_0, Initial residual = 0.0782904, Final residual = 0.000191487, No Iterations 1
GAMG:  Solving for ILambda_54_0, Initial residual = 0.0843842, Final residual = 1.55532e-16, No Iterations 1
GAMG:  Solving for ILambda_55_0, Initial residual = 0.0782039, Final residual = 1.33573e-16, No Iterations 1
GAMG:  Solving for ILambda_56_0, Initial residual = 0.07726, Final residual = 1.20837e-16, No Iterations 1
GAMG:  Solving for ILambda_57_0, Initial residual = 0.0782594, Final residual = 1.2396e-16, No Iterations 1
GAMG:  Solving for ILambda_58_0, Initial residual = 0.0842238, Final residual = 1.40008e-16, No Iterations 1
GAMG:  Solving for ILambda_59_0, Initial residual = 0.0829194, Final residual = 8.25233e-05, No Iterations 1
GAMG:  Solving for ILambda_60_0, Initial residual = 0.090737, Final residual = 1.51691e-16, No Iterations 1
GAMG:  Solving for ILambda_61_0, Initial residual = 0.0870399, Final residual = 4.8972e-05, No Iterations 1
GAMG:  Solving for ILambda_62_0, Initial residual = 0.0823899, Final residual = 0.000120471, No Iterations 1
GAMG:  Solving for ILambda_63_0, Initial residual = 0.0809575, Final residual = 0.000129369, No Iterations 1
GAMG:  Solving for ILambda_64_0, Initial residual = 0.0800505, Final residual = 0.000102491, No Iterations 1
GAMG:  Solving for ILambda_65_0, Initial residual = 0.0810286, Final residual = 3.79463e-05, No Iterations 1
GAMG:  Solving for ILambda_66_0, Initial residual = 0.082743, Final residual = 1.47536e-16, No Iterations 1
GAMG:  Solving for ILambda_67_0, Initial residual = 0.0796671, Final residual = 1.41301e-16, No Iterations 1
GAMG:  Solving for ILambda_68_0, Initial residual = 0.0791251, Final residual = 1.31524e-16, No Iterations 1
GAMG:  Solving for ILambda_69_0, Initial residual = 0.08045, Final residual = 1.42491e-16, No Iterations 1
GAMG:  Solving for ILambda_70_0, Initial residual = 0.0818661, Final residual = 1.43576e-16, No Iterations 1
GAMG:  Solving for ILambda_71_0, Initial residual = 0.0859392, Final residual = 1.47252e-16, No Iterations 1
Radiation solver iter: 7
GAMG:  Solving for ILambda_0_0, Initial residual = 0.0699159, Final residual = 1.45465e-16, No Iterations 1
GAMG:  Solving for ILambda_1_0, Initial residual = 0.0668782, Final residual = 1.36903e-16, No Iterations 1
GAMG:  Solving for ILambda_3_0, Initial residual = 0.0682044, Final residual = 1.36273e-16, No Iterations 1
GAMG:  Solving for ILambda_4_0, Initial residual = 0.0716339, Final residual = 1.43179e-16, No Iterations 1
GAMG:  Solving for ILambda_5_0, Initial residual = 0.0766693, Final residual = 1.58201e-16, No Iterations 1
GAMG:  Solving for ILambda_6_0, Initial residual = 0.0836327, Final residual = 1.76528e-16, No Iterations 1
GAMG:  Solving for ILambda_7_0, Initial residual = 0.0780877, Final residual = 2.09153e-05, No Iterations 1
GAMG:  Solving for ILambda_8_0, Initial residual = 0.0725045, Final residual = 4.61538e-05, No Iterations 1
GAMG:  Solving for ILambda_9_0, Initial residual = 0.068992, Final residual = 4.94448e-05, No Iterations 1
GAMG:  Solving for ILambda_10_0, Initial residual = 0.0674516, Final residual = 3.78122e-05, No Iterations 1
GAMG:  Solving for ILambda_11_0, Initial residual = 0.068063, Final residual = 1.37153e-05, No Iterations 1
GAMG:  Solving for ILambda_12_0, Initial residual = 0.07053, Final residual = 1.50086e-16, No Iterations 1
GAMG:  Solving for ILambda_13_0, Initial residual = 0.0652102, Final residual = 1.30171e-16, No Iterations 1
GAMG:  Solving for ILambda_14_0, Initial residual = 0.063407, Final residual = 1.22188e-16, No Iterations 1
GAMG:  Solving for ILambda_15_0, Initial residual = 0.0649735, Final residual = 1.28959e-16, No Iterations 1
GAMG:  Solving for ILambda_16_0, Initial residual = 0.0723998, Final residual = 1.4388e-16, No Iterations 1
GAMG:  Solving for ILambda_17_0, Initial residual = 0.0730332, Final residual = 3.30566e-05, No Iterations 1
GAMG:  Solving for ILambda_18_0, Initial residual = 0.0808718, Final residual = 7.8196e-05, No Iterations 1
GAMG:  Solving for ILambda_19_0, Initial residual = 0.0741916, Final residual = 0.000155263, No Iterations 1
GAMG:  Solving for ILambda_20_0, Initial residual = 0.0721773, Final residual = 0.000167693, No Iterations 1
GAMG:  Solving for ILambda_21_0, Initial residual = 0.0650085, Final residual = 0.000134913, No Iterations 1
GAMG:  Solving for ILambda_22_0, Initial residual = 0.0636495, Final residual = 0.000113444, No Iterations 1
GAMG:  Solving for ILambda_23_0, Initial residual = 0.0654202, Final residual = 6.22465e-05, No Iterations 1
GAMG:  Solving for ILambda_24_0, Initial residual = 0.075686, Final residual = 0.000262125, No Iterations 1
GAMG:  Solving for ILambda_25_0, Initial residual = 0.0693044, Final residual = 0.000191852, No Iterations 1
GAMG:  Solving for ILambda_26_0, Initial residual = 0.0733262, Final residual = 3.74342e-06, No Iterations 1
GAMG:  Solving for ILambda_27_0, Initial residual = 0.0696089, Final residual = 1.37596e-16, No Iterations 1
GAMG:  Solving for ILambda_28_0, Initial residual = 0.0649566, Final residual = 5.85998e-05, No Iterations 1
GAMG:  Solving for ILambda_29_0, Initial residual = 0.0647237, Final residual = 0.000117955, No Iterations 1
GAMG:  Solving for ILambda_30_0, Initial residual = 0.0713943, Final residual = 0.00021715, No Iterations 1
GAMG:  Solving for ILambda_31_0, Initial residual = 0.0648179, Final residual = 0.000255903, No Iterations 1
GAMG:  Solving for ILambda_32_0, Initial residual = 0.0651647, Final residual = 0.000274967, No Iterations 1
GAMG:  Solving for ILambda_33_0, Initial residual = 0.067647, Final residual = 0.000191402, No Iterations 1
GAMG:  Solving for ILambda_34_0, Initial residual = 0.0745826, Final residual = 5.02825e-05, No Iterations 1
GAMG:  Solving for ILambda_35_0, Initial residual = 0.0699771, Final residual = 0.000306452, No Iterations 1
GAMG:  Solving for ILambda_36_0, Initial residual = 0.0572377, Final residual = 0.000424039, No Iterations 1
GAMG:  Solving for ILambda_37_0, Initial residual = 0.0699088, Final residual = 0.000452559, No Iterations 1
GAMG:  Solving for ILambda_38_0, Initial residual = 0.0695898, Final residual = 0.00040847, No Iterations 1
GAMG:  Solving for ILambda_39_0, Initial residual = 0.0726167, Final residual = 0.000207933, No Iterations 1
GAMG:  Solving for ILambda_40_0, Initial residual = 0.0746357, Final residual = 4.96763e-05, No Iterations 1
GAMG:  Solving for ILambda_41_0, Initial residual = 0.0658811, Final residual = 0.000152052, No Iterations 1
GAMG:  Solving for ILambda_42_0, Initial residual = 0.0705898, Final residual = 0.000270279, No Iterations 1
GAMG:  Solving for ILambda_43_0, Initial residual = 0.0651764, Final residual = 0.000192614, No Iterations 1
GAMG:  Solving for ILambda_44_0, Initial residual = 0.0707051, Final residual = 2.3895e-05, No Iterations 1
GAMG:  Solving for ILambda_45_0, Initial residual = 0.0738109, Final residual = 1.42049e-16, No Iterations 1
GAMG:  Solving for ILambda_46_0, Initial residual = 0.0699449, Final residual = 0.000116877, No Iterations 1
GAMG:  Solving for ILambda_47_0, Initial residual = 0.0698524, Final residual = 0.000242726, No Iterations 1
GAMG:  Solving for ILambda_48_0, Initial residual = 0.0809404, Final residual = 0.000115577, No Iterations 1
GAMG:  Solving for ILambda_49_0, Initial residual = 0.0761932, Final residual = 0.000276311, No Iterations 1
GAMG:  Solving for ILambda_50_0, Initial residual = 0.0753853, Final residual = 0.000322545, No Iterations 1
GAMG:  Solving for ILambda_51_0, Initial residual = 0.0702682, Final residual = 0.000276603, No Iterations 1
GAMG:  Solving for ILambda_52_0, Initial residual = 0.0688008, Final residual = 0.000194592, No Iterations 1
GAMG:  Solving for ILambda_53_0, Initial residual = 0.0704911, Final residual = 0.000132257, No Iterations 1
GAMG:  Solving for ILambda_54_0, Initial residual = 0.0751919, Final residual = 1.57899e-16, No Iterations 1
GAMG:  Solving for ILambda_55_0, Initial residual = 0.0697076, Final residual = 1.34555e-16, No Iterations 1
GAMG:  Solving for ILambda_56_0, Initial residual = 0.0686602, Final residual = 1.30904e-16, No Iterations 1
GAMG:  Solving for ILambda_57_0, Initial residual = 0.069832, Final residual = 1.29564e-16, No Iterations 1
GAMG:  Solving for ILambda_58_0, Initial residual = 0.0755194, Final residual = 1.47104e-16, No Iterations 1
GAMG:  Solving for ILambda_59_0, Initial residual = 0.0756422, Final residual = 6.23792e-05, No Iterations 1
GAMG:  Solving for ILambda_60_0, Initial residual = 0.0826669, Final residual = 1.53998e-16, No Iterations 1
GAMG:  Solving for ILambda_61_0, Initial residual = 0.0787333, Final residual = 3.56147e-05, No Iterations 1
GAMG:  Solving for ILambda_62_0, Initial residual = 0.0752711, Final residual = 8.96571e-05, No Iterations 1
GAMG:  Solving for ILambda_63_0, Initial residual = 0.0723616, Final residual = 0.000110531, No Iterations 1
GAMG:  Solving for ILambda_64_0, Initial residual = 0.0713068, Final residual = 8.86795e-05, No Iterations 1
GAMG:  Solving for ILambda_65_0, Initial residual = 0.0721767, Final residual = 3.40917e-05, No Iterations 1
GAMG:  Solving for ILambda_66_0, Initial residual = 0.0736327, Final residual = 1.5549e-16, No Iterations 1
GAMG:  Solving for ILambda_67_0, Initial residual = 0.0713971, Final residual = 1.43038e-16, No Iterations 1
GAMG:  Solving for ILambda_68_0, Initial residual = 0.0709016, Final residual = 1.43808e-16, No Iterations 1
GAMG:  Solving for ILambda_69_0, Initial residual = 0.0714517, Final residual = 1.52522e-16, No Iterations 1
GAMG:  Solving for ILambda_70_0, Initial residual = 0.0746343, Final residual = 1.5218e-16, No Iterations 1
GAMG:  Solving for ILambda_71_0, Initial residual = 0.0775476, Final residual = 1.53965e-16, No Iterations 1
Radiation solver iter: 8
GAMG:  Solving for ILambda_5_0, Initial residual = 0.0713465, Final residual = 1.64925e-16, No Iterations 1
GAMG:  Solving for ILambda_6_0, Initial residual = 0.0786579, Final residual = 1.90695e-16, No Iterations 1
GAMG:  Solving for ILambda_7_0, Initial residual = 0.0728834, Final residual = 2.00802e-05, No Iterations 1
GAMG:  Solving for ILambda_12_0, Initial residual = 0.0641462, Final residual = 1.61778e-16, No Iterations 1
GAMG:  Solving for ILambda_13_0, Initial residual = 0.0589749, Final residual = 1.34559e-16, No Iterations 1
GAMG:  Solving for ILambda_14_0, Initial residual = 0.0574243, Final residual = 1.27127e-16, No Iterations 1
GAMG:  Solving for ILambda_15_0, Initial residual = 0.0596431, Final residual = 1.36241e-16, No Iterations 1
GAMG:  Solving for ILambda_16_0, Initial residual = 0.0666008, Final residual = 1.52382e-16, No Iterations 1
GAMG:  Solving for ILambda_17_0, Initial residual = 0.067406, Final residual = 3.129e-05, No Iterations 1
GAMG:  Solving for ILambda_18_0, Initial residual = 0.0756049, Final residual = 7.28884e-05, No Iterations 1
GAMG:  Solving for ILambda_19_0, Initial residual = 0.0685694, Final residual = 0.000148602, No Iterations 1
GAMG:  Solving for ILambda_20_0, Initial residual = 0.0663073, Final residual = 0.00015914, No Iterations 1
GAMG:  Solving for ILambda_21_0, Initial residual = 0.0596366, Final residual = 0.000126738, No Iterations 1
GAMG:  Solving for ILambda_22_0, Initial residual = 0.0573953, Final residual = 9.7464e-05, No Iterations 1
GAMG:  Solving for ILambda_23_0, Initial residual = 0.0594593, Final residual = 5.35366e-05, No Iterations 1
GAMG:  Solving for ILambda_24_0, Initial residual = 0.0680376, Final residual = 0.000242768, No Iterations 1
GAMG:  Solving for ILambda_25_0, Initial residual = 0.0622239, Final residual = 0.000148736, No Iterations 1
GAMG:  Solving for ILambda_26_0, Initial residual = 0.0654013, Final residual = 2.82743e-06, No Iterations 1
GAMG:  Solving for ILambda_27_0, Initial residual = 0.0626918, Final residual = 1.43668e-16, No Iterations 1
GAMG:  Solving for ILambda_28_0, Initial residual = 0.0587564, Final residual = 4.83574e-05, No Iterations 1
GAMG:  Solving for ILambda_29_0, Initial residual = 0.0593373, Final residual = 0.000112148, No Iterations 1
GAMG:  Solving for ILambda_30_0, Initial residual = 0.0656751, Final residual = 0.000215743, No Iterations 1
GAMG:  Solving for ILambda_31_0, Initial residual = 0.0595841, Final residual = 0.000238922, No Iterations 1
GAMG:  Solving for ILambda_32_0, Initial residual = 0.0592803, Final residual = 0.000241384, No Iterations 1
GAMG:  Solving for ILambda_33_0, Initial residual = 0.0612665, Final residual = 0.000151158, No Iterations 1
GAMG:  Solving for ILambda_34_0, Initial residual = 0.0663039, Final residual = 4.52797e-05, No Iterations 1
GAMG:  Solving for ILambda_35_0, Initial residual = 0.0628556, Final residual = 0.00023965, No Iterations 1
GAMG:  Solving for ILambda_36_0, Initial residual = 0.0525566, Final residual = 0.000328698, No Iterations 1
GAMG:  Solving for ILambda_37_0, Initial residual = 0.0628606, Final residual = 0.000423079, No Iterations 1
GAMG:  Solving for ILambda_38_0, Initial residual = 0.063486, Final residual = 0.000364087, No Iterations 1
GAMG:  Solving for ILambda_39_0, Initial residual = 0.0656477, Final residual = 0.000159746, No Iterations 1
GAMG:  Solving for ILambda_40_0, Initial residual = 0.0663513, Final residual = 4.4703e-05, No Iterations 1
GAMG:  Solving for ILambda_41_0, Initial residual = 0.0596906, Final residual = 0.000133674, No Iterations 1
GAMG:  Solving for ILambda_42_0, Initial residual = 0.064285, Final residual = 0.000228896, No Iterations 1
GAMG:  Solving for ILambda_43_0, Initial residual = 0.0590768, Final residual = 0.000167105, No Iterations 1
GAMG:  Solving for ILambda_44_0, Initial residual = 0.0632959, Final residual = 2.06504e-05, No Iterations 1
GAMG:  Solving for ILambda_45_0, Initial residual = 0.0666428, Final residual = 1.48305e-16, No Iterations 1
GAMG:  Solving for ILambda_46_0, Initial residual = 0.0628811, Final residual = 0.000104925, No Iterations 1
GAMG:  Solving for ILambda_47_0, Initial residual = 0.0629785, Final residual = 0.000207739, No Iterations 1
GAMG:  Solving for ILambda_48_0, Initial residual = 0.0754137, Final residual = 0.000103179, No Iterations 1
GAMG:  Solving for ILambda_49_0, Initial residual = 0.0700517, Final residual = 0.000221208, No Iterations 1
[...]
DILUPBiCGStab:  Solving for epsilon, Initial residual = 8.76367e-06, Final residual = 8.76367e-06, No Iterations 0
kSource::addSup()
DILUPBiCGStab:  Solving for k, Initial residual = 1.07766e-05, Final residual = 6.30574e-07, No Iterations 1

Solving for solid region soil1
DICPCG:  Solving for h, Initial residual = 1.92302e-06, Final residual = 1.50311e-08, No Iterations 1
Min/max T:295.367 336.534

Solving for solid region soil2
DICPCG:  Solving for h, Initial residual = 9.67864e-06, Final residual = 1.10538e-08, No Iterations 1
Min/max T:309.301 340.717

Solving for solid region asphalt
DICPCG:  Solving for h, Initial residual = 2.65628e-06, Final residual = 3.6041e-09, No Iterations 1
Min/max T:321.073 330.194

Solving for solid region concrete
DICPCG:  Solving for h, Initial residual = 5.56695e-06, Final residual = 5.52683e-09, No Iterations 1
Min/max T:294.699 330.099
ExecutionTime = 1621.83 s  ClockTime = 1676 s

Calculating the Incident radiation on the leaf (GLeaf)
Calculating the Temperature of the leaf (TLeaf)
The leaf temperature converged within 53 iterations
Time = 677


Solving for fluid region air
mySource::addSup()
DILUPBiCGStab:  Solving for Ux, Initial residual = 2.45737e-05, Final residual = 1.15239e-07, No Iterations 1
DILUPBiCGStab:  Solving for Uy, Initial residual = 0.000126855, Final residual = 6.64251e-07, No Iterations 1
DILUPBiCGStab:  Solving for Uz, Initial residual = 0.000100173, Final residual = 4.88913e-07, No Iterations 1
ESource::addSup()
DILUPBiCGStab:  Solving for h, Initial residual = 1.72534e-05, Final residual = 3.14563e-07, No Iterations 1
Min/max T:306.872 340.717
DICPCG:  Solving for p_rgh, Initial residual = 4.541e-05, Final residual = 9.79854e-07, No Iterations 75
time step continuity errors : sum local = 2.0912e-09, global = -2.14305e-11, cumulative = 3.64458e-05
Min/max rho:0.907849 1.00938
specHumSource::addSup()
DILUPBiCGStab:  Solving for specHum, Initial residual = 9.85138e-06, Final residual = 9.85138e-06, No Iterations 0
epsilonSource::addSup()
DILUPBiCGStab:  Solving for epsilon, Initial residual = 9.94398e-06, Final residual = 9.94398e-06, No Iterations 0
kSource::addSup()
DILUPBiCGStab:  Solving for k, Initial residual = 1.09487e-05, Final residual = 6.33523e-07, No Iterations 1

Solving for solid region soil1
DICPCG:  Solving for h, Initial residual = 1.93101e-06, Final residual = 1.51379e-08, No Iterations 1
Min/max T:295.367 336.534

Solving for solid region soil2
DICPCG:  Solving for h, Initial residual = 1.07085e-05, Final residual = 1.27197e-08, No Iterations 1
Min/max T:309.301 340.717

Solving for solid region asphalt
DICPCG:  Solving for h, Initial residual = 2.55617e-06, Final residual = 3.70933e-09, No Iterations 1
Min/max T:321.073 330.194

Solving for solid region concrete
DICPCG:  Solving for h, Initial residual = 6.00042e-06, Final residual = 6.42319e-09, No Iterations 1
Min/max T:294.699 330.099
ExecutionTime = 1623.58 s  ClockTime = 1677 s

Calculating the Incident radiation on the leaf (GLeaf)
Calculating the Temperature of the leaf (TLeaf)
The leaf temperature converged within 53 iterations
Time = 678


Solving for fluid region air
mySource::addSup()
DILUPBiCGStab:  Solving for Ux, Initial residual = 2.43757e-05, Final residual = 1.14355e-07, No Iterations 1
DILUPBiCGStab:  Solving for Uy, Initial residual = 0.000125893, Final residual = 6.58892e-07, No Iterations 1
DILUPBiCGStab:  Solving for Uz, Initial residual = 9.94264e-05, Final residual = 4.85084e-07, No Iterations 1
ESource::addSup()
DILUPBiCGStab:  Solving for h, Initial residual = 1.70209e-05, Final residual = 3.10435e-07, No Iterations 1
Min/max T:306.872 340.717
DICPCG:  Solving for p_rgh, Initial residual = 4.63338e-05, Final residual = 9.80408e-07, No Iterations 75
time step continuity errors : sum local = 2.09246e-09, global = -1.59407e-11, cumulative = 3.64458e-05
Min/max rho:0.907849 1.00938
specHumSource::addSup()
DILUPBiCGStab:  Solving for specHum, Initial residual = 1.01235e-05, Final residual = 1.82194e-07, No Iterations 1
epsilonSource::addSup()
DILUPBiCGStab:  Solving for epsilon, Initial residual = 1.12536e-05, Final residual = 7.04878e-07, No Iterations 1
kSource::addSup()
DILUPBiCGStab:  Solving for k, Initial residual = 1.03402e-05, Final residual = 5.94576e-07, No Iterations 1

Solving for solid region soil1
DICPCG:  Solving for h, Initial residual = 1.95494e-06, Final residual = 1.53811e-08, No Iterations 1
Min/max T:295.367 336.534

Solving for solid region soil2
DICPCG:  Solving for h, Initial residual = 1.15008e-05, Final residual = 1.3653e-08, No Iterations 1
Min/max T:309.301 340.717

Solving for solid region asphalt
DICPCG:  Solving for h, Initial residual = 2.45847e-06, Final residual = 3.63537e-09, No Iterations 1
Min/max T:321.073 330.194

Solving for solid region concrete
DICPCG:  Solving for h, Initial residual = 6.67067e-06, Final residual = 7.65778e-09, No Iterations 1
Min/max T:294.699 330.1
ExecutionTime = 1625.32 s  ClockTime = 1679 s

Calculating the Incident radiation on the leaf (GLeaf)
Calculating the Temperature of the leaf (TLeaf)
The leaf temperature converged within 53 iterations
Time = 679


Solving for fluid region air
mySource::addSup()
DILUPBiCGStab:  Solving for Ux, Initial residual = 2.41951e-05, Final residual = 1.13528e-07, No Iterations 1
DILUPBiCGStab:  Solving for Uy, Initial residual = 0.000124947, Final residual = 6.53657e-07, No Iterations 1
DILUPBiCGStab:  Solving for Uz, Initial residual = 9.86627e-05, Final residual = 4.81367e-07, No Iterations 1
ESource::addSup()
DILUPBiCGStab:  Solving for h, Initial residual = 1.67632e-05, Final residual = 3.03852e-07, No Iterations 1
Min/max T:306.872 340.717
DICPCG:  Solving for p_rgh, Initial residual = 4.44043e-05, Final residual = 9.67763e-07, No Iterations 75
time step continuity errors : sum local = 2.06546e-09, global = -1.87405e-11, cumulative = 3.64457e-05
Min/max rho:0.90785 1.00938
specHumSource::addSup()
DILUPBiCGStab:  Solving for specHum, Initial residual = 9.93834e-06, Final residual = 9.93834e-06, No Iterations 0
epsilonSource::addSup()
DILUPBiCGStab:  Solving for epsilon, Initial residual = 9.42893e-06, Final residual = 9.42893e-06, No Iterations 0
kSource::addSup()
DILUPBiCGStab:  Solving for k, Initial residual = 9.94115e-06, Final residual = 9.94115e-06, No Iterations 0

Solving for solid region soil1
DICPCG:  Solving for h, Initial residual = 1.99033e-06, Final residual = 1.56854e-08, No Iterations 1
Min/max T:295.367 336.534

Solving for solid region soil2
DICPCG:  Solving for h, Initial residual = 1.07068e-05, Final residual = 1.11005e-08, No Iterations 1
Min/max T:309.301 340.717

Solving for solid region asphalt
DICPCG:  Solving for h, Initial residual = 2.22562e-06, Final residual = 2.68483e-09, No Iterations 1
Min/max T:321.073 330.194

Solving for solid region concrete
DICPCG:  Solving for h, Initial residual = 5.87033e-06, Final residual = 5.61865e-09, No Iterations 1
Min/max T:294.699 330.1
ExecutionTime = 1627.04 s  ClockTime = 1681 s

Calculating the Incident radiation on the leaf (GLeaf)
Calculating the Temperature of the leaf (TLeaf)
The leaf temperature converged within 53 iterations
Time = 680


Solving for fluid region air
mySource::addSup()
DILUPBiCGStab:  Solving for Ux, Initial residual = 2.40017e-05, Final residual = 1.12614e-07, No Iterations 1
DILUPBiCGStab:  Solving for Uy, Initial residual = 0.000123988, Final residual = 6.48352e-07, No Iterations 1
DILUPBiCGStab:  Solving for Uz, Initial residual = 9.78837e-05, Final residual = 4.77211e-07, No Iterations 1
ESource::addSup()
DILUPBiCGStab:  Solving for h, Initial residual = 1.65263e-05, Final residual = 2.98519e-07, No Iterations 1
Radiation solver iter: 0
GAMG:  Solving for ILambda_0_0, Initial residual = 0.000468474, Final residual = 1.54818e-15, No Iterations 1
GAMG:  Solving for ILambda_1_0, Initial residual = 0.000630871, Final residual = 1.50771e-15, No Iterations 1
GAMG:  Solving for ILambda_2_0, Initial residual = 0.000549479, Final residual = 1.55672e-15, No Iterations 1
GAMG:  Solving for ILambda_3_0, Initial residual = 0.000306813, Final residual = 1.70399e-15, No Iterations 1
GAMG:  Solving for ILambda_4_0, Initial residual = 0.000144531, Final residual = 1.92527e-15, No Iterations 1
GAMG:  Solving for ILambda_5_0, Initial residual = 0.000110712, Final residual = 2.22026e-15, No Iterations 1
GAMG:  Solving for ILambda_6_0, Initial residual = 0.00011849, Final residual = 2.52611e-15, No Iterations 1
GAMG:  Solving for ILambda_7_0, Initial residual = 0.000128149, Final residual = 4.28972e-08, No Iterations 1
GAMG:  Solving for ILambda_8_0, Initial residual = 0.000161287, Final residual = 1.78449e-07, No Iterations 1
GAMG:  Solving for ILambda_9_0, Initial residual = 0.000287441, Final residual = 4.38845e-07, No Iterations 1
GAMG:  Solving for ILambda_10_0, Initial residual = 0.000489066, Final residual = 5.17132e-07, No Iterations 1
GAMG:  Solving for ILambda_11_0, Initial residual = 0.000546133, Final residual = 2.18292e-07, No Iterations 1
GAMG:  Solving for ILambda_12_0, Initial residual = 0.00042969, Final residual = 1.20569e-15, No Iterations 1
GAMG:  Solving for ILambda_13_0, Initial residual = 0.000933272, Final residual = 1.16296e-15, No Iterations 1
GAMG:  Solving for ILambda_14_0, Initial residual = 0.00146432, Final residual = 1.08771e-15, No Iterations 1
GAMG:  Solving for ILambda_15_0, Initial residual = 0.000941823, Final residual = 1.22535e-15, No Iterations 1
GAMG:  Solving for ILambda_16_0, Initial residual = 0.000164648, Final residual = 1.62009e-15, No Iterations 1
GAMG:  Solving for ILambda_17_0, Initial residual = 0.00011914, Final residual = 7.9932e-08, No Iterations 1
GAMG:  Solving for ILambda_18_0, Initial residual = 0.000124694, Final residual = 1.96702e-07, No Iterations 1
GAMG:  Solving for ILambda_19_0, Initial residual = 0.000150556, Final residual = 4.83557e-07, No Iterations 1
GAMG:  Solving for ILambda_20_0, Initial residual = 0.000210871, Final residual = 8.00327e-07, No Iterations 1
GAMG:  Solving for ILambda_21_0, Initial residual = 0.000949682, Final residual = 1.86231e-06, No Iterations 1
GAMG:  Solving for ILambda_22_0, Initial residual = 0.00165387, Final residual = 3.20494e-06, No Iterations 1
GAMG:  Solving for ILambda_23_0, Initial residual = 0.0010318, Final residual = 2.32943e-06, No Iterations 1
GAMG:  Solving for ILambda_24_0, Initial residual = 0.00108658, Final residual = 1.39015e-06, No Iterations 1
GAMG:  Solving for ILambda_25_0, Initial residual = 0.00103265, Final residual = 1.58606e-06, No Iterations 1
GAMG:  Solving for ILambda_26_0, Initial residual = 0.0014682, Final residual = 4.60154e-07, No Iterations 1
GAMG:  Solving for ILambda_27_0, Initial residual = 0.000424028, Final residual = 1.3874e-15, No Iterations 1
GAMG:  Solving for ILambda_28_0, Initial residual = 0.00101345, Final residual = 9.01306e-07, No Iterations 1
GAMG:  Solving for ILambda_29_0, Initial residual = 0.000652041, Final residual = 9.08789e-07, No Iterations 1
GAMG:  Solving for ILambda_30_0, Initial residual = 0.00022593, Final residual = 1.31643e-06, No Iterations 1
GAMG:  Solving for ILambda_31_0, Initial residual = 0.000670121, Final residual = 3.36795e-06, No Iterations 1
GAMG:  Solving for ILambda_32_0, Initial residual = 0.0011123, Final residual = 5.15111e-06, No Iterations 1
GAMG:  Solving for ILambda_33_0, Initial residual = 0.000831017, Final residual = 2.8404e-06, No Iterations 1
GAMG:  Solving for ILambda_34_0, Initial residual = 0.00202582, Final residual = 1.4555e-05, No Iterations 1
GAMG:  Solving for ILambda_35_0, Initial residual = 0.00194602, Final residual = 2.35035e-06, No Iterations 1
GAMG:  Solving for ILambda_36_0, Initial residual = 8.30443e-05, Final residual = 8.30443e-05, No Iterations 0
GAMG:  Solving for ILambda_37_0, Initial residual = 0.00129522, Final residual = 1.24432e-06, No Iterations 1
GAMG:  Solving for ILambda_38_0, Initial residual = 0.00105637, Final residual = 1.07008e-06, No Iterations 1
GAMG:  Solving for ILambda_39_0, Initial residual = 0.000684673, Final residual = 7.07194e-07, No Iterations 1
GAMG:  Solving for ILambda_40_0, Initial residual = 0.000459059, Final residual = 1.90195e-06, No Iterations 1
GAMG:  Solving for ILambda_41_0, Initial residual = 0.00044891, Final residual = 2.16912e-06, No Iterations 1
GAMG:  Solving for ILambda_42_0, Initial residual = 0.000164435, Final residual = 8.37275e-07, No Iterations 1
GAMG:  Solving for ILambda_43_0, Initial residual = 0.00065936, Final residual = 2.73415e-06, No Iterations 1
GAMG:  Solving for ILambda_44_0, Initial residual = 0.000462184, Final residual = 3.62908e-07, No Iterations 1
GAMG:  Solving for ILambda_45_0, Initial residual = 0.00298127, Final residual = 1.23296e-13, No Iterations 1
GAMG:  Solving for ILambda_46_0, Initial residual = 0.00266443, Final residual = 8.84027e-07, No Iterations 1
GAMG:  Solving for ILambda_47_0, Initial residual = 0.00205975, Final residual = 6.88284e-07, No Iterations 1
GAMG:  Solving for ILambda_48_0, Initial residual = 0.00129568, Final residual = 2.04658e-07, No Iterations 1
GAMG:  Solving for ILambda_49_0, Initial residual = 0.00122341, Final residual = 4.40649e-07, No Iterations 1
GAMG:  Solving for ILambda_50_0, Initial residual = 0.00111919, Final residual = 4.20203e-07, No Iterations 1
GAMG:  Solving for ILambda_51_0, Initial residual = 0.00113819, Final residual = 2.45905e-07, No Iterations 1
GAMG:  Solving for ILambda_52_0, Initial residual = 0.00106469, Final residual = 3.08195e-07, No Iterations 1
GAMG:  Solving for ILambda_53_0, Initial residual = 0.00100237, Final residual = 2.94583e-07, No Iterations 1
GAMG:  Solving for ILambda_54_0, Initial residual = 0.00109997, Final residual = 8.51579e-14, No Iterations 1
GAMG:  Solving for ILambda_55_0, Initial residual = 0.00156257, Final residual = 8.02563e-14, No Iterations 1
GAMG:  Solving for ILambda_56_0, Initial residual = 0.00196404, Final residual = 9.67898e-14, No Iterations 1
GAMG:  Solving for ILambda_57_0, Initial residual = 0.00240497, Final residual = 1.10074e-13, No Iterations 1
GAMG:  Solving for ILambda_58_0, Initial residual = 0.001974, Final residual = 1.34354e-13, No Iterations 1
GAMG:  Solving for ILambda_59_0, Initial residual = 0.00163423, Final residual = 9.51104e-08, No Iterations 1
GAMG:  Solving for ILambda_60_0, Initial residual = 0.00121406, Final residual = 1.40977e-13, No Iterations 1
GAMG:  Solving for ILambda_61_0, Initial residual = 0.00118789, Final residual = 3.06403e-08, No Iterations 1
GAMG:  Solving for ILambda_62_0, Initial residual = 0.00119504, Final residual = 6.90348e-08, No Iterations 1
GAMG:  Solving for ILambda_63_0, Initial residual = 0.00122634, Final residual = 7.95892e-08, No Iterations 1
GAMG:  Solving for ILambda_64_0, Initial residual = 0.0012397, Final residual = 7.16361e-08, No Iterations 1
GAMG:  Solving for ILambda_65_0, Initial residual = 0.00123867, Final residual = 3.22138e-08, No Iterations 1
GAMG:  Solving for ILambda_66_0, Initial residual = 0.0013212, Final residual = 1.0853e-13, No Iterations 1
GAMG:  Solving for ILambda_67_0, Initial residual = 0.00141768, Final residual = 1.09559e-13, No Iterations 1
GAMG:  Solving for ILambda_68_0, Initial residual = 0.0016031, Final residual = 1.16289e-13, No Iterations 1
GAMG:  Solving for ILambda_69_0, Initial residual = 0.00166456, Final residual = 1.21452e-13, No Iterations 1
GAMG:  Solving for ILambda_70_0, Initial residual = 0.00152624, Final residual = 1.31765e-13, No Iterations 1
GAMG:  Solving for ILambda_71_0, Initial residual = 0.00136749, Final residual = 1.36751e-13, No Iterations 1
Min/max T:306.872 340.717
DICPCG:  Solving for p_rgh, Initial residual = 4.45998e-05, Final residual = 9.65049e-07, No Iterations 75
time step continuity errors : sum local = 2.05975e-09, global = -1.43998e-11, cumulative = 3.64457e-05
Min/max rho:0.90785 1.00938
specHumSource::addSup()
DILUPBiCGStab:  Solving for specHum, Initial residual = 1.01896e-05, Final residual = 1.83752e-07, No Iterations 1
epsilonSource::addSup()
DILUPBiCGStab:  Solving for epsilon, Initial residual = 1.00213e-05, Final residual = 6.07265e-07, No Iterations 1
kSource::addSup()
DILUPBiCGStab:  Solving for k, Initial residual = 1.00564e-05, Final residual = 5.83251e-07, No Iterations 1

Solving for solid region soil1
DICPCG:  Solving for h, Initial residual = 2.01406e-06, Final residual = 1.58274e-08, No Iterations 1
Min/max T:295.367 336.534

Solving for solid region soil2
DICPCG:  Solving for h, Initial residual = 1.15833e-05, Final residual = 1.6936e-08, No Iterations 1
Min/max T:309.301 340.717

Solving for solid region asphalt
DICPCG:  Solving for h, Initial residual = 5.10611e-06, Final residual = 8.45556e-09, No Iterations 1
Min/max T:321.073 330.194

Solving for solid region concrete
DICPCG:  Solving for h, Initial residual = 6.87192e-06, Final residual = 1.08327e-08, No Iterations 1
Min/max T:294.699 330.102
ExecutionTime = 1634.58 s  ClockTime = 1689 s

Calculating the Incident radiation on the leaf (GLeaf)
Calculating the Temperature of the leaf (TLeaf)
The leaf temperature converged within 53 iterations
Time = 681


Solving for fluid region air
mySource::addSup()
DILUPBiCGStab:  Solving for Ux, Initial residual = 2.38116e-05, Final residual = 1.11749e-07, No Iterations 1
DILUPBiCGStab:  Solving for Uy, Initial residual = 0.000123041, Final residual = 6.43051e-07, No Iterations 1
DILUPBiCGStab:  Solving for Uz, Initial residual = 9.70755e-05, Final residual = 4.73459e-07, No Iterations 1
ESource::addSup()
DILUPBiCGStab:  Solving for h, Initial residual = 1.70959e-05, Final residual = 3.11557e-07, No Iterations 1
Min/max T:306.872 340.717
DICPCG:  Solving for p_rgh, Initial residual = 4.38522e-05, Final residual = 9.53308e-07, No Iterations 75
time step continuity errors : sum local = 2.03479e-09, global = -1.81353e-11, cumulative = 3.64457e-05
Min/max rho:0.907848 1.00938
specHumSource::addSup()
DILUPBiCGStab:  Solving for specHum, Initial residual = 1.00117e-05, Final residual = 1.79401e-07, No Iterations 1
epsilonSource::addSup()
DILUPBiCGStab:  Solving for epsilon, Initial residual = 8.5389e-06, Final residual = 8.5389e-06, No Iterations 0
kSource::addSup()
DILUPBiCGStab:  Solving for k, Initial residual = 9.72165e-06, Final residual = 9.72165e-06, No Iterations 0

Solving for solid region soil1
DICPCG:  Solving for h, Initial residual = 1.9627e-06, Final residual = 1.53071e-08, No Iterations 1
Min/max T:295.367 336.534

Solving for solid region soil2
DICPCG:  Solving for h, Initial residual = 7.63182e-06, Final residual = 1.22305e-08, No Iterations 1
Min/max T:309.301 340.717

Solving for solid region asphalt
DICPCG:  Solving for h, Initial residual = 4.33492e-06, Final residual = 3.44549e-09, No Iterations 1
Min/max T:321.073 330.194

Solving for solid region concrete
DICPCG:  Solving for h, Initial residual = 5.05457e-06, Final residual = 6.96763e-09, No Iterations 1
Min/max T:294.699 330.103
ExecutionTime = 1636.32 s  ClockTime = 1690 s

Calculating the Incident radiation on the leaf (GLeaf)
Calculating the Temperature of the leaf (TLeaf)
The leaf temperature converged within 53 iterations
Time = 682


Solving for fluid region air
mySource::addSup()
DILUPBiCGStab:  Solving for Ux, Initial residual = 2.36196e-05, Final residual = 1.10879e-07, No Iterations 1
DILUPBiCGStab:  Solving for Uy, Initial residual = 0.000122098, Final residual = 6.37775e-07, No Iterations 1
DILUPBiCGStab:  Solving for Uz, Initial residual = 9.6352e-05, Final residual = 4.69675e-07, No Iterations 1
ESource::addSup()
DILUPBiCGStab:  Solving for h, Initial residual = 1.68542e-05, Final residual = 3.06427e-07, No Iterations 1
Min/max T:306.872 340.717
DICPCG:  Solving for p_rgh, Initial residual = 4.47887e-05, Final residual = 9.86031e-07, No Iterations 31
time step continuity errors : sum local = 2.10461e-09, global = -3.38339e-10, cumulative = 3.64454e-05
Min/max rho:0.907848 1.00938
