/*---------------------------------------------------------------------------*\
| =========                 |                                                 |
| \\      /  F ield         | OpenFOAM: The Open Source CFD Toolbox           |
|  \\    /   O peration     | Version:  v2012                                 |
|   \\  /    A nd           | Website:  www.openfoam.com                      |
|    \\/     M anipulation  |                                                 |
\*---------------------------------------------------------------------------*/
Build  : _7bdb509494-20201222 OPENFOAM=2012
Arch   : "LSB;label=32;scalar=64"
Exec   : blockMesh
Date   : Dec 12 2022
Time   : 13:06:51
Host   : LAPTOP-6UM34LHV
PID    : 1833
I/O    : uncollated
Case   : /mnt/e/OpenFOAM_run/mytest
nProcs : 1
trapFpe: Floating point exception trapping enabled (FOAM_SIGFPE).
fileModificationChecking : Monitoring run-time modified files using timeStampMaster (fileModificationSkew 5, maxFileModificationPolls 20)
allowSystemOperations : Allowing user-supplied system call operations

// * * * * * * * * * * * * * * * * * * * * * * * * * * * * * * * * * * * * * //
Create time

Creating block mesh from "system/blockMeshDict"
Using #calc at line 27 in file "/mnt/e/OpenFOAM_run/mytest/system/blockMeshDict.backgroundMesh"
Using #codeStream with "/mnt/e/OpenFOAM_run/mytest/dynamicCode/platforms/linux64Gcc63DPInt32Opt/lib/libcodeStream_f2c5f26639487e922d4f12588d553b743aa4b8c6.so"
Could not load "/mnt/e/OpenFOAM_run/mytest/dynamicCode/platforms/linux64Gcc63DPInt32Opt/lib/libcodeStream_f2c5f26639487e922d4f12588d553b743aa4b8c6.so"
/mnt/e/OpenFOAM_run/mytest/dynamicCode/platforms/linux64Gcc63DPInt32Opt/lib/libcodeStream_f2c5f26639487e922d4f12588d553b743aa4b8c6.so: cannot open shared object file: No such file or directory
Creating new library in "dynamicCode/_f2c5f26639487e922d4f12588d553b743aa4b8c6/platforms/linux64Gcc63DPInt32Opt/lib/libcodeStream_f2c5f26639487e922d4f12588d553b743aa4b8c6.so"
Invoking wmake libso /mnt/e/OpenFOAM_run/mytest/dynamicCode/_f2c5f26639487e922d4f12588d553b743aa4b8c6
wmake libso /mnt/e/OpenFOAM_run/mytest/dynamicCode/_f2c5f26639487e922d4f12588d553b743aa4b8c6
    ln: ./lnInclude
    dep: codeStreamTemplate.C
    Ctoo: codeStreamTemplate.C
    ld: /mnt/e/OpenFOAM_run/mytest/dynamicCode/_f2c5f26639487e922d4f12588d553b743aa4b8c6/../platforms/linux64Gcc63DPInt32Opt/lib/libcodeStream_f2c5f26639487e922d4f12588d553b743aa4b8c6.so
Using #calc at line 28 in file "/mnt/e/OpenFOAM_run/mytest/system/blockMeshDict.backgroundMesh"
Using #codeStream with "/mnt/e/OpenFOAM_run/mytest/dynamicCode/platforms/linux64Gcc63DPInt32Opt/lib/libcodeStream_a8bf319be7ca85837e1e6b4dd8d2851fd1ecb305.so"
Could not load "/mnt/e/OpenFOAM_run/mytest/dynamicCode/platforms/linux64Gcc63DPInt32Opt/lib/libcodeStream_a8bf319be7ca85837e1e6b4dd8d2851fd1ecb305.so"
/mnt/e/OpenFOAM_run/mytest/dynamicCode/platforms/linux64Gcc63DPInt32Opt/lib/libcodeStream_a8bf319be7ca85837e1e6b4dd8d2851fd1ecb305.so: cannot open shared object file: No such file or directory
Creating new library in "dynamicCode/_a8bf319be7ca85837e1e6b4dd8d2851fd1ecb305/platforms/linux64Gcc63DPInt32Opt/lib/libcodeStream_a8bf319be7ca85837e1e6b4dd8d2851fd1ecb305.so"
Invoking wmake libso /mnt/e/OpenFOAM_run/mytest/dynamicCode/_a8bf319be7ca85837e1e6b4dd8d2851fd1ecb305
wmake libso /mnt/e/OpenFOAM_run/mytest/dynamicCode/_a8bf319be7ca85837e1e6b4dd8d2851fd1ecb305
    ln: ./lnInclude
    dep: codeStreamTemplate.C
    Ctoo: codeStreamTemplate.C
    ld: /mnt/e/OpenFOAM_run/mytest/dynamicCode/_a8bf319be7ca85837e1e6b4dd8d2851fd1ecb305/../platforms/linux64Gcc63DPInt32Opt/lib/libcodeStream_a8bf319be7ca85837e1e6b4dd8d2851fd1ecb305.so
Creating block edges
No non-planar block faces defined
Creating topology blocks
Creating topology patches

Creating block mesh topology

Check topology

	Basic statistics
		Number of internal faces : 0
		Number of boundary faces : 6
		Number of defined boundary faces : 6
		Number of undefined boundary faces : 0
	Checking patch -> block consistency

Creating block offsets
Creating merge list (topological search)...

Creating polyMesh from blockMesh
Creating patches
Creating cells
Creating points with scale 1
    Block 0 cell size :
        i : 1 .. 1
        j : 1 .. 1
        k : 0.406831 .. 1


There are no merge patch pairs

Writing polyMesh with 0 cellZones
----------------
Mesh Information
----------------
  boundingBox: (0 0 -2) (90 80 30)
  nPoints: 375921
  nCells: 360000
  nFaces: 1095700
  nInternalFaces: 1064300
----------------
Patches
----------------
  patch 0 (start: 1064300 size: 4000) name: inlet
  patch 1 (start: 1068300 size: 4000) name: outlet
  patch 2 (start: 1072300 size: 9000) name: side
  patch 3 (start: 1081300 size: 7200) name: ground
  patch 4 (start: 1088500 size: 7200) name: top

End

