/*---------------------------------------------------------------------------*\
| =========                 |                                                 |
| \\      /  F ield         | OpenFOAM: The Open Source CFD Toolbox           |
|  \\    /   O peration     | Version:  v2012                                 |
|   \\  /    A nd           | Website:  www.openfoam.com                      |
|    \\/     M anipulation  |                                                 |
\*---------------------------------------------------------------------------*/
Build  : _7bdb509494-20201222 OPENFOAM=2012
Arch   : "LSB;label=32;scalar=64"
Exec   : chtMultiRegionSimpleFoam
Date   : Nov 18 2022
Time   : 18:21:16
Host   : LAPTOP-6UM34LHV
PID    : 16218
I/O    : uncollated
Case   : /mnt/e/OpenFOAM_run/mytest
nProcs : 1
trapFpe: Floating point exception trapping enabled (FOAM_SIGFPE).
fileModificationChecking : Monitoring run-time modified files using timeStampMaster (fileModificationSkew 5, maxFileModificationPolls 20)
allowSystemOperations : Allowing user-supplied system call operations

// * * * * * * * * * * * * * * * * * * * * * * * * * * * * * * * * * * * * * //
Create time

Create fluid mesh for region air for time = 0

Create solid mesh for region soil1 for time = 0

Create solid mesh for region soil2 for time = 0

Create solid mesh for region soil3 for time = 0

*** Reading fluid mesh thermophysical properties for region air

    Adding to thermoFluid

Selecting thermodynamics package 
{
    type            heRhoThermo;
    mixture         pureMixture;
    transport       const;
    thermo          hConst;
    equationOfState Boussinesq;
    specie          specie;
    energy          sensibleEnthalpy;
}

    Adding to rhoFluid

    Adding to UFluid

    Adding to phiFluid

    Adding to hRefFluid

    Adding to ghFluid

    Adding to ghfFluid

    Adding to turbulence

Selecting turbulence model type RAS
Selecting RAS turbulence model kEpsilon
RAS
{
    RASModel        kEpsilon;
    turbulence      on;
    printCoeffs     on;
    Cmu             0.09;
    C1              1.44;
    C2              1.92;
    C3              0;
    sigmak          1;
    sigmaEps        1.3;
}

Selecting radiationModel fvDOM
Selecting absorptionEmissionModel multiBandZoneAbsorptionEmission
Selecting scatterModel none
Selecting sootModel none
fvDOM : Allocated 36 rays with average orientation:
Sun direction : (0 0.707107 -0.707107)

Sun ray ID : 12

	I0 : dAve : 	(0 0.251244 0.0264365) : omega : 	0.261799 : d : 	(-2.08167e-17 0.965926 0.258819)
	I1 : dAve : 	(0.0794814 0.236184 0.0414957) : omega : 	0.261799 : d : 	(0.25 0.918559 0.306186)
	I2 : dAve : 	(0.137666 0.195042 0.0826383) : omega : 	0.261799 : d : 	(0.433013 0.789149 0.435596)
	I3 : dAve : 	(0.158963 0.13884 0.13884) : omega : 	0.261799 : d : 	(0.5 0.612372 0.612372)
	I4 : dAve : 	(0.137666 0.0826383 0.195042) : omega : 	0.261799 : d : 	(0.433013 0.435596 0.789149)
	I5 : dAve : 	(0.0794814 0.0414957 0.236184) : omega : 	0.261799 : d : 	(0.25 0.306186 0.918559)
	I6 : dAve : 	(6.93889e-17 0.0264365 0.251244) : omega : 	0.261799 : d : 	(2.22045e-16 0.258819 0.965926)
	I7 : dAve : 	(-0.0794814 0.0414957 0.236184) : omega : 	0.261799 : d : 	(-0.25 0.306186 0.918559)
	I8 : dAve : 	(-0.137666 0.0826383 0.195042) : omega : 	0.261799 : d : 	(-0.433013 0.435596 0.789149)
	I9 : dAve : 	(-0.158963 0.13884 0.13884) : omega : 	0.261799 : d : 	(-0.5 0.612372 0.612372)
	I10 : dAve : 	(-0.137666 0.195042 0.0826383) : omega : 	0.261799 : d : 	(-0.433013 0.789149 0.435596)
	I11 : dAve : 	(-0.0794814 0.236184 0.0414957) : omega : 	0.261799 : d : 	(-0.25 0.918559 0.306186)
	I12 : dAve : 	(-1.38778e-17 0.350144 -0.350144) : omega : 	0.523599 : d : 	(0 0.707107 -0.707107)
	I13 : dAve : 	(0.247589 0.303234 -0.303234) : omega : 	0.523599 : d : 	(0.5 0.612372 -0.612372)
	I14 : dAve : 	(0.428837 0.175072 -0.175072) : omega : 	0.523599 : d : 	(0.866025 0.353553 -0.353553)
	I15 : dAve : 	(0.495179 6.87384e-17 -4.16334e-17) : omega : 	0.523599 : d : 	(1 1.50487e-16 -2.77556e-17)
	I16 : dAve : 	(0.428837 -0.175072 0.175072) : omega : 	0.523599 : d : 	(0.866025 -0.353553 0.353553)
	I17 : dAve : 	(0.247589 -0.303234 0.303234) : omega : 	0.523599 : d : 	(0.5 -0.612372 0.612372)
	I18 : dAve : 	(1.80411e-16 -0.350144 0.350144) : omega : 	0.523599 : d : 	(4.16334e-16 -0.707107 0.707107)
	I19 : dAve : 	(-0.247589 -0.303234 0.303234) : omega : 	0.523599 : d : 	(-0.5 -0.612372 0.612372)
	I20 : dAve : 	(-0.428837 -0.175072 0.175072) : omega : 	0.523599 : d : 	(-0.866025 -0.353553 0.353553)
	I21 : dAve : 	(-0.495179 -1.50054e-16 1.80411e-16) : omega : 	0.523599 : d : 	(-1 -3.10949e-16 4.16334e-16)
	I22 : dAve : 	(-0.428837 0.175072 -0.175072) : omega : 	0.523599 : d : 	(-0.866025 0.353553 -0.353553)
	I23 : dAve : 	(-0.247589 0.303234 -0.303234) : omega : 	0.523599 : d : 	(-0.5 0.612372 -0.612372)
	I24 : dAve : 	(0 -0.0264365 -0.251244) : omega : 	0.261799 : d : 	(0 -0.258819 -0.965926)
	I25 : dAve : 	(0.0794814 -0.0414957 -0.236184) : omega : 	0.261799 : d : 	(0.25 -0.306186 -0.918559)
	I26 : dAve : 	(0.137666 -0.0826383 -0.195042) : omega : 	0.261799 : d : 	(0.433013 -0.435596 -0.789149)
	I27 : dAve : 	(0.158963 -0.13884 -0.13884) : omega : 	0.261799 : d : 	(0.5 -0.612372 -0.612372)
	I28 : dAve : 	(0.137666 -0.195042 -0.0826383) : omega : 	0.261799 : d : 	(0.433013 -0.789149 -0.435596)
	I29 : dAve : 	(0.0794814 -0.236184 -0.0414957) : omega : 	0.261799 : d : 	(0.25 -0.918559 -0.306186)
	I30 : dAve : 	(6.33174e-17 -0.251244 -0.0264365) : omega : 	0.261799 : d : 	(2.01228e-16 -0.965926 -0.258819)
	I31 : dAve : 	(-0.0794814 -0.236184 -0.0414957) : omega : 	0.261799 : d : 	(-0.25 -0.918559 -0.306186)
	I32 : dAve : 	(-0.137666 -0.195042 -0.0826383) : omega : 	0.261799 : d : 	(-0.433013 -0.789149 -0.435596)
	I33 : dAve : 	(-0.158963 -0.13884 -0.13884) : omega : 	0.261799 : d : 	(-0.5 -0.612372 -0.612372)
	I34 : dAve : 	(-0.137666 -0.0826383 -0.195042) : omega : 	0.261799 : d : 	(-0.433013 -0.435596 -0.789149)
	I35 : dAve : 	(-0.0794814 -0.0414957 -0.236184) : omega : 	0.261799 : d : 	(-0.25 -0.306186 -0.918559)
Total omega : 12.5664

    Adding MRF

No MRF models present

    Adding fvOptions

*** Reading solid mesh thermophysical properties for region soil1

    Adding to thermos

Selecting thermodynamics package 
{
    type            heSolidThermo;
    mixture         pureMixture;
    transport       constIso;
    thermo          hConst;
    equationOfState rhoConst;
    specie          specie;
    energy          sensibleEnthalpy;
}

    Adding to radiations

Selecting radiationModel none
    Adding fvOptions

*** Reading solid mesh thermophysical properties for region soil2

    Adding to thermos

Selecting thermodynamics package 
{
    type            heSolidThermo;
    mixture         pureMixture;
    transport       constIso;
    thermo          hConst;
    equationOfState rhoConst;
    specie          specie;
    energy          sensibleEnthalpy;
}

    Adding to radiations

Selecting radiationModel none
    Adding fvOptions

*** Reading solid mesh thermophysical properties for region soil3

    Adding to thermos

Selecting thermodynamics package 
{
    type            heSolidThermo;
    mixture         pureMixture;
    transport       constIso;
    thermo          hConst;
    equationOfState rhoConst;
    specie          specie;
    energy          sensibleEnthalpy;
}

    Adding to radiations

Selecting radiationModel none
    Adding fvOptions



--> FOAM FATAL ERROR: (openfoam-2012)

    request for objectRegistry region0 from objectRegistry mytest failed
    available objects of type objectRegistry are
4(soil1 air soil3 soil2)

    From const Type& Foam::objectRegistry::lookupObject(const Foam::word&, bool) const [with Type = Foam::objectRegistry]
    in file /home/pawan/OpenFOAM/OpenFOAM/OpenFOAM-v2012/src/OpenFOAM/lnInclude/objectRegistryTemplates.C at line 463.

FOAM aborting

#0  Foam::error::printStack(Foam::Ostream&) at ??:?
#1  Foam::error::exitOrAbort(int, bool) at ??:?
#2  Foam::objectRegistry const& Foam::objectRegistry::lookupObject<Foam::objectRegistry>(Foam::word const&, bool) const at ??:?
#3  Foam::functionObjects::regionFunctionObject::regionFunctionObject(Foam::word const&, Foam::Time const&, Foam::dictionary const&) at ??:?
#4  Foam::functionObjects::fvMeshFunctionObject::fvMeshFunctionObject(Foam::word const&, Foam::Time const&, Foam::dictionary const&) at ??:?
#5  Foam::functionObjects::GLeaf::GLeaf(Foam::word const&, Foam::Time const&, Foam::dictionary const&) at ??:?
#6  Foam::functionObject::adddictionaryConstructorToTable<Foam::functionObjects::GLeaf>::New(Foam::word const&, Foam::Time const&, Foam::dictionary const&) at ??:?
#7  Foam::functionObject::New(Foam::word const&, Foam::Time const&, Foam::dictionary const&) at ??:?
#8  Foam::functionObjects::timeControl::timeControl(Foam::word const&, Foam::Time const&, Foam::dictionary const&) at ??:?
#9  Foam::functionObjectList::read() at ??:?
#10  Foam::Time::run() const at ??:?
#11  Foam::Time::loop() at ??:?
#12  ? at ??:?
#13  ? in /lib/x86_64-linux-gnu/libc.so.6
#14  __libc_start_main in /lib/x86_64-linux-gnu/libc.so.6
#15  ? at ??:?
Aborted
